<?xml version="1.0" encoding="UTF-8"?>

<!-- generated on 09/23/19 10:56:10 by Eclipse SUMO netedit Version v1_3_1+0387-af6f2b6888
<configuration xmlns:xsi="http://www.w3.org/2001/XMLSchema-instance" xsi:noNamespaceSchemaLocation="http://sumo.dlr.de/xsd/netconvertConfiguration.xsd">

    <input>
        <sumo-net-file value="D:\Praktikum\Praktikum_DLR\netedit_testing\Ride_Crash\WalkBusCrash.net.xml"/>
    </input>

    <output>
        <output-file value="D:\Praktikum\Praktikum_DLR\netedit_testing\Ride_Crash\WalkBusCrash.net.xml"/>
    </output>

    <processing>
        <geometry.max-grade.fix value="false"/>
        <offset.disable-normalization value="true"/>
        <lefthand value="false"/>
    </processing>

    <junctions>
        <no-turnarounds value="true"/>
        <junctions.corner-detail value="5"/>
        <junctions.limit-turn-speed value="5.5"/>
        <rectangular-lane-cut value="false"/>
    </junctions>

    <pedestrian>
        <walkingareas value="false"/>
    </pedestrian>

    <netedit>
        <route-files value="D:\Praktikum\Praktikum_DLR\netedit_testing\Ride_Crash\WalkBusCrash.rou.xml"/>
    </netedit>

</configuration>
-->

<routes xmlns:xsi="http://www.w3.org/2001/XMLSchema-instance" xsi:noNamespaceSchemaLocation="http://sumo.dlr.de/xsd/routes_file.xsd">
    <vType id="DEFAULT_VEHTYPE" vClass="bus" guiShape="bus"/>
    <vType id="vType_0"/>
    <vType id="pType_0" vClass="pedestrian"/>
    <person id="person_0" depart="0.00"/>
    <trip id="trip_0" depart="0.00" line="Bus" from="gneE3" to="gneE5"/>
</routes>
