<?xml version="1.0" encoding="UTF-8"?>

<!-- generated on 09/19/19 14:19:38 by Eclipse SUMO netedit Version 1.3.1
<configuration xmlns:xsi="http://www.w3.org/2001/XMLSchema-instance" xsi:noNamespaceSchemaLocation="http://sumo.dlr.de/xsd/netconvertConfiguration.xsd">

    <input>
        <sumo-net-file value="C:\Users\camil\Sumo\netedit_testing\WalkBusCrash.net.xml"/>
    </input>

    <output>
        <output-file value="C:\Users\camil\Sumo\netedit_testing\WalkBusCrash.net.xml"/>
    </output>

    <processing>
        <geometry.max-grade.fix value="false"/>
        <offset.disable-normalization value="true"/>
        <opposites.guess.fix-lengths value="true"/>
        <lefthand value="false"/>
    </processing>

    <junctions>
        <no-turnarounds value="true"/>
        <junctions.corner-detail value="5"/>
        <junctions.limit-turn-speed value="5.5"/>
        <rectangular-lane-cut value="false"/>
    </junctions>

    <pedestrian>
        <walkingareas value="false"/>
    </pedestrian>

    <netedit>
        <additional-files value="C:\Users\camil\Sumo\netedit_testing\WalkBusCrash.rou.xml"/>
    </netedit>

</configuration>
-->

<additional xmlns:xsi="http://www.w3.org/2001/XMLSchema-instance" xsi:noNamespaceSchemaLocation="http://sumo.dlr.de/xsd/additional_file.xsd">
    <busStop id="busStop_gneE3_0_2" lane="gneE3_0" startPos="21.48" endPos="31.48"/>
    <busStop id="busStop_gneE4_0_1" lane="gneE4_0" startPos="22.80" endPos="32.80"/>
    <busStop id="busStop_gneE5_0_0" lane="gneE5_0" startPos="35.95" endPos="45.95"/>
</additional>
