<?xml version="1.0" encoding="UTF-8"?>

<!-- generated on 09/18/19 15:07:57 by Eclipse SUMO duarouter Version 1.3.1
<configuration xmlns:xsi="http://www.w3.org/2001/XMLSchema-instance" xsi:noNamespaceSchemaLocation="http://sumo.dlr.de/xsd/duarouterConfiguration.xsd">

    <input>
        <net-file value="osm.net.xml"/>
        <route-files value="osm.passenger.trips.xml"/>
    </input>

    <output>
        <output-file value="osm.passenger.trips.xml.tmp"/>
        <write-trips value="true"/>
    </output>

    <time>
        <begin value="0"/>
        <end value="3600.0"/>
    </time>

    <report>
        <no-warnings value="true"/>
        <ignore-errors value="true"/>
        <no-step-log value="true"/>
    </report>

</configuration>
-->

<routes xmlns:xsi="http://www.w3.org/2001/XMLSchema-instance" xsi:noNamespaceSchemaLocation="http://sumo.dlr.de/xsd/routes_file.xsd">
    <vType id="veh_passenger" vClass="passenger"/>
    <trip id="veh2" type="veh_passenger" depart="2.62" departLane="best" from="266454540#5" to="25799153#10"/>
    <trip id="veh3" type="veh_passenger" depart="3.92" departLane="best" from="43167434#1" to="-171257628#0"/>
    <trip id="veh4" type="veh_passenger" depart="5.23" departLane="best" departSpeed="max" from="-589852136#1" to="-150937047#5"/>
    <trip id="veh6" type="veh_passenger" depart="7.85" departLane="best" from="-148614183#8" to="-25799153#17"/>
    <trip id="veh7" type="veh_passenger" depart="9.15" departLane="best" from="25194206#2" to="154754266"/>
    <trip id="veh9" type="veh_passenger" depart="11.77" departLane="best" from="328400400#1" to="-148614177#1"/>
    <trip id="veh12" type="veh_passenger" depart="15.69" departLane="best" from="723757291#12" to="-35414070"/>
    <trip id="veh13" type="veh_passenger" depart="17.00" departLane="best" from="-171257632#1" to="-217386905"/>
    <trip id="veh14" type="veh_passenger" depart="18.31" departLane="best" departSpeed="max" from="35403473#0" to="25000113#5"/>
    <trip id="veh15" type="veh_passenger" depart="19.62" departLane="best" from="328253843#2" to="283006412#2"/>
    <trip id="veh16" type="veh_passenger" depart="20.92" departLane="best" from="151237817#0" to="75252111#4"/>
    <trip id="veh17" type="veh_passenger" depart="22.23" departLane="best" from="-43169788#0" to="173640273#2"/>
    <trip id="veh20" type="veh_passenger" depart="26.15" departLane="best" departSpeed="max" from="-26489644#3" to="-31306520#5"/>
    <trip id="veh21" type="veh_passenger" depart="27.46" departLane="best" from="-151237831#0" to="-26192423"/>
    <trip id="veh22" type="veh_passenger" depart="28.77" departLane="best" from="-217386887#3" to="-31091054#2"/>
    <trip id="veh23" type="veh_passenger" depart="30.08" departLane="best" from="25192963#6" to="-426572490#5"/>
    <trip id="veh24" type="veh_passenger" depart="31.38" departLane="best" from="-426572490#2" to="-25799297#2"/>
    <trip id="veh25" type="veh_passenger" depart="32.69" departLane="best" from="-31091036#6" to="594582763"/>
    <trip id="veh26" type="veh_passenger" depart="34.00" departLane="best" from="25192970" to="25016103#0"/>
    <trip id="veh27" type="veh_passenger" depart="35.31" departLane="best" departSpeed="max" from="-25194206#8" to="283006412#1"/>
    <trip id="veh28" type="veh_passenger" depart="36.62" departLane="best" from="-25192969#3" to="-432116461#2"/>
    <trip id="veh29" type="veh_passenger" depart="37.92" departLane="best" departSpeed="max" from="9624002" to="25194206#1"/>
    <trip id="veh30" type="veh_passenger" depart="39.23" departLane="best" departSpeed="max" from="171257628#0" to="25799173#2"/>
    <trip id="veh31" type="veh_passenger" depart="40.54" departLane="best" departSpeed="max" from="35321083#0" to="31306481#8"/>
    <trip id="veh32" type="veh_passenger" depart="41.85" departLane="best" from="-26624363#0" to="-150937060"/>
    <trip id="veh33" type="veh_passenger" depart="43.15" departLane="best" from="-336735697#3" to="-292487453#0"/>
    <trip id="veh34" type="veh_passenger" depart="44.46" departLane="best" from="-25799283#1" to="685460476#0"/>
    <trip id="veh35" type="veh_passenger" depart="45.77" departLane="best" from="37849738#4" to="-336735697#0"/>
    <trip id="veh36" type="veh_passenger" depart="47.08" departLane="best" from="25194873#2" to="-520100576#0"/>
    <trip id="veh38" type="veh_passenger" depart="49.69" departLane="best" from="-31091036#15" to="-272111635#2"/>
    <trip id="veh39" type="veh_passenger" depart="51.00" departLane="best" from="173640273#1" to="-283006414#0"/>
    <trip id="veh40" type="veh_passenger" depart="52.31" departLane="best" from="23045996#0" to="456662392#1"/>
    <trip id="veh41" type="veh_passenger" depart="53.62" departLane="best" departSpeed="max" from="-48563052#1" to="-25814959#0"/>
    <trip id="veh42" type="veh_passenger" depart="54.92" departLane="best" from="9628124#2" to="150937124#1"/>
    <trip id="veh43" type="veh_passenger" depart="56.23" departLane="best" departSpeed="max" from="-171091371#1" to="-150937124#0"/>
    <trip id="veh44" type="veh_passenger" depart="57.54" departLane="best" from="-24751914#4" to="25192963#1"/>
    <trip id="veh45" type="veh_passenger" depart="58.85" departLane="best" from="31091054#3" to="-685460476#1"/>
    <trip id="veh46" type="veh_passenger" depart="60.15" departLane="best" from="-151237805#0" to="-456662392#0"/>
    <trip id="veh47" type="veh_passenger" depart="61.46" departLane="best" from="9628124#1" to="151237817#4"/>
    <trip id="veh48" type="veh_passenger" depart="62.77" departLane="best" from="72442767#9" to="37849738#5"/>
    <trip id="veh49" type="veh_passenger" depart="64.08" departLane="best" from="-148614178" to="266454540#9"/>
    <trip id="veh50" type="veh_passenger" depart="65.38" departLane="best" from="25798456#1" to="151237831#12"/>
    <trip id="veh51" type="veh_passenger" depart="66.69" departLane="best" from="-31091036#6" to="25194206#3"/>
    <trip id="veh52" type="veh_passenger" depart="68.00" departLane="best" from="-25000104#3" to="-723757293"/>
    <trip id="veh53" type="veh_passenger" depart="69.31" departLane="best" from="-91603547#1" to="723757291#5"/>
    <trip id="veh54" type="veh_passenger" depart="70.62" departLane="best" from="37849738#4" to="-283006414#1"/>
    <trip id="veh56" type="veh_passenger" depart="73.23" departLane="best" from="462852146" to="410646532#0"/>
    <trip id="veh58" type="veh_passenger" depart="75.85" departLane="best" from="25000113#14" to="-25192964#0"/>
    <trip id="veh59" type="veh_passenger" depart="77.15" departLane="best" from="283006421#0" to="151237831#16"/>
    <trip id="veh60" type="veh_passenger" depart="78.46" departLane="best" from="310306839#3" to="151237827#1"/>
    <trip id="veh61" type="veh_passenger" depart="79.77" departLane="best" from="-105006227#0" to="-35321083#0"/>
    <trip id="veh62" type="veh_passenger" depart="81.08" departLane="best" from="38095508#0" to="35403721#2"/>
    <trip id="veh63" type="veh_passenger" depart="82.39" departLane="best" from="-331318342#5" to="-151237804#3"/>
    <trip id="veh64" type="veh_passenger" depart="83.69" departLane="best" from="37849738#6" to="685460477#1"/>
    <trip id="veh65" type="veh_passenger" depart="85.00" departLane="best" from="-151237831#3" to="148614183#5"/>
    <trip id="veh66" type="veh_passenger" depart="86.31" departLane="best" from="-151237809#1" to="31091036#2"/>
    <trip id="veh67" type="veh_passenger" depart="87.62" departLane="best" departSpeed="max" from="297984310" to="-25000113#7"/>
    <trip id="veh68" type="veh_passenger" depart="88.92" departLane="best" from="143681196#0" to="173640273#1"/>
    <trip id="veh69" type="veh_passenger" depart="90.23" departLane="best" from="-31091036#16" to="41524139#1"/>
    <trip id="veh71" type="veh_passenger" depart="92.85" departLane="best" from="151237817#4" to="283006412#2"/>
    <trip id="veh72" type="veh_passenger" depart="94.15" departLane="best" from="-25799153#17" to="-331318343#2"/>
    <trip id="veh73" type="veh_passenger" depart="95.46" departLane="best" from="9628124#0" to="25194873#3"/>
    <trip id="veh75" type="veh_passenger" depart="98.08" departLane="best" departSpeed="max" from="-358701736" to="25000104#7"/>
    <trip id="veh77" type="veh_passenger" depart="100.69" departLane="best" from="-151237809#3" to="25192964#2"/>
    <trip id="veh78" type="veh_passenger" depart="102.00" departLane="best" departSpeed="max" from="-26489644#3" to="46854398"/>
    <trip id="veh79" type="veh_passenger" depart="103.31" departLane="best" from="35414074#0" to="-151237827#1"/>
    <trip id="veh80" type="veh_passenger" depart="104.62" departLane="best" from="-266454540#9" to="25798345#4"/>
    <trip id="veh81" type="veh_passenger" depart="105.92" departLane="best" departSpeed="max" from="-25799299" to="-25016103#2"/>
    <trip id="veh82" type="veh_passenger" depart="107.23" departLane="best" from="587695675" to="217386888#2"/>
    <trip id="veh83" type="veh_passenger" depart="108.54" departLane="best" from="328253843#2" to="-25798456#0"/>
    <trip id="veh84" type="veh_passenger" depart="109.85" departLane="best" from="-193875628#2" to="-723757291#5"/>
    <trip id="veh85" type="veh_passenger" depart="111.15" departLane="best" from="-589868383" to="143681196#1"/>
    <trip id="veh86" type="veh_passenger" depart="112.46" departLane="best" from="26489644#0" to="25798716#2"/>
    <trip id="veh87" type="veh_passenger" depart="113.77" departLane="best" from="91603547#2" to="-23045995#2"/>
    <trip id="veh88" type="veh_passenger" depart="115.08" departLane="best" from="-52710327#0" to="-35414074#1"/>
    <trip id="veh90" type="veh_passenger" depart="117.69" departLane="best" from="-25798345#1" to="-91603547#1"/>
    <trip id="veh91" type="veh_passenger" depart="119.00" departLane="best" departSpeed="max" from="-589852136#1" to="-31091054#3"/>
    <trip id="veh92" type="veh_passenger" depart="120.31" departLane="best" from="-283006412#5" to="587687968#0"/>
    <trip id="veh93" type="veh_passenger" depart="121.62" departLane="best" from="-72442767#1" to="37849738#5"/>
    <trip id="veh94" type="veh_passenger" depart="122.92" departLane="best" from="151237831#2" to="-150937133"/>
    <trip id="veh95" type="veh_passenger" depart="124.23" departLane="best" from="9702843#0" to="35414072#3"/>
    <trip id="veh96" type="veh_passenger" depart="125.54" departLane="best" from="72442767#6" to="587687976#1"/>
    <trip id="veh97" type="veh_passenger" depart="126.85" departLane="best" departSpeed="max" from="35403505" to="-25194206#5"/>
    <trip id="veh99" type="veh_passenger" depart="129.46" departLane="best" from="-520100576#0" to="-151237805#0"/>
    <trip id="veh100" type="veh_passenger" depart="130.77" departLane="best" from="-43169788#1" to="9622704"/>
    <trip id="veh101" type="veh_passenger" depart="132.08" departLane="best" from="-31091036#16" to="328253843#1"/>
    <trip id="veh102" type="veh_passenger" depart="133.39" departLane="best" departSpeed="max" from="-91603547#3" to="-685460476#3"/>
    <trip id="veh103" type="veh_passenger" depart="134.69" departLane="best" from="723757291#3" to="9628124#0"/>
    <trip id="veh104" type="veh_passenger" depart="136.00" departLane="best" from="154754279" to="266454540#6"/>
    <trip id="veh105" type="veh_passenger" depart="137.31" departLane="best" from="-25192963#5" to="-328400400#2"/>
    <trip id="veh106" type="veh_passenger" depart="138.62" departLane="best" from="72442767#5" to="233698813"/>
    <trip id="veh107" type="veh_passenger" depart="139.92" departLane="best" from="151237827#3" to="292487453#1"/>
    <trip id="veh108" type="veh_passenger" depart="141.23" departLane="best" from="-150937180#0" to="25000104#3"/>
    <trip id="veh109" type="veh_passenger" depart="142.54" departLane="best" from="150937047#4" to="37452316#0"/>
    <trip id="veh110" type="veh_passenger" depart="143.85" departLane="best" from="-25192963#9" to="72442767#10"/>
    <trip id="veh111" type="veh_passenger" depart="145.15" departLane="best" from="-151237831#1" to="-25798244#0"/>
    <trip id="veh112" type="veh_passenger" depart="146.46" departLane="best" from="25000104#4" to="25798952#0"/>
    <trip id="veh113" type="veh_passenger" depart="147.77" departLane="best" from="-266454540#5" to="-25000113#1"/>
    <trip id="veh114" type="veh_passenger" depart="149.08" departLane="best" departSpeed="max" from="43167423" to="-272111635#2"/>
    <trip id="veh115" type="veh_passenger" depart="150.39" departLane="best" departSpeed="max" from="-589852136#1" to="25000104#3"/>
    <trip id="veh116" type="veh_passenger" depart="151.69" departLane="best" from="150937131#1" to="589941539#1"/>
    <trip id="veh117" type="veh_passenger" depart="153.00" departLane="best" departSpeed="max" from="-25799153#21" to="266454540#3"/>
    <trip id="veh118" type="veh_passenger" depart="154.31" departLane="best" from="-266454541#0" to="-520100576#0"/>
    <trip id="veh120" type="veh_passenger" depart="156.92" departLane="best" from="-151237817#2" to="-9628124#2"/>
    <trip id="veh122" type="veh_passenger" depart="159.54" departLane="best" from="-31091036#16" to="589868383"/>
    <trip id="veh123" type="veh_passenger" depart="160.85" departLane="best" departSpeed="max" from="408367260" to="43167434#0"/>
    <trip id="veh124" type="veh_passenger" depart="162.15" departLane="best" from="-426572490#1" to="-25192965#2"/>
    <trip id="veh126" type="veh_passenger" depart="164.77" departLane="best" from="25000113#2" to="9622704"/>
    <trip id="veh127" type="veh_passenger" depart="166.08" departLane="best" from="25194206#7" to="-148614178"/>
    <trip id="veh128" type="veh_passenger" depart="167.39" departLane="best" departSpeed="max" from="32936142" to="-32935932#1"/>
    <trip id="veh129" type="veh_passenger" depart="168.69" departLane="best" from="25307868#2" to="638460946"/>
    <trip id="veh130" type="veh_passenger" depart="170.00" departLane="best" from="-25016103#1" to="-25000112#3"/>
    <trip id="veh131" type="veh_passenger" depart="171.31" departLane="best" from="-245124126" to="173640273#3"/>
    <trip id="veh132" type="veh_passenger" depart="172.62" departLane="best" from="-31306481#2" to="25000113#8"/>
    <trip id="veh134" type="veh_passenger" depart="175.23" departLane="best" from="25192963#2" to="-283006414#1"/>
    <trip id="veh135" type="veh_passenger" depart="176.54" departLane="best" from="148614183#17" to="46854398"/>
    <trip id="veh136" type="veh_passenger" depart="177.85" departLane="best" departSpeed="max" from="35321086#0" to="-193875628#1"/>
    <trip id="veh137" type="veh_passenger" depart="179.15" departLane="best" from="-589868383" to="-31091036#7"/>
    <trip id="veh138" type="veh_passenger" depart="180.46" departLane="best" departSpeed="max" from="-140648431#2" to="31306481#1"/>
    <trip id="veh139" type="veh_passenger" depart="181.77" departLane="best" departSpeed="max" from="25192964#0" to="-283006412#7"/>
    <trip id="veh140" type="veh_passenger" depart="183.08" departLane="best" from="-685460476#1" to="-148614183#1"/>
    <trip id="veh141" type="veh_passenger" depart="184.39" departLane="best" from="-151237827#1" to="43167437#4"/>
    <trip id="veh142" type="veh_passenger" depart="185.69" departLane="best" from="432116461#3" to="154754279"/>
    <trip id="veh143" type="veh_passenger" depart="187.00" departLane="best" from="336735697#2" to="24751914#5"/>
    <trip id="veh144" type="veh_passenger" depart="188.31" departLane="best" from="-25192962#0" to="-25000113#5"/>
    <trip id="veh145" type="veh_passenger" depart="189.62" departLane="best" from="-331318342#8" to="456662393"/>
    <trip id="veh146" type="veh_passenger" depart="190.92" departLane="best" from="31306481#1" to="37849738#5"/>
    <trip id="veh147" type="veh_passenger" depart="192.23" departLane="best" from="43169787#1" to="-25799297#3"/>
    <trip id="veh148" type="veh_passenger" depart="193.54" departLane="best" from="-283006412#5" to="-245124126"/>
    <trip id="veh149" type="veh_passenger" depart="194.85" departLane="best" from="31091036#1" to="43167439#0"/>
    <trip id="veh150" type="veh_passenger" depart="196.16" departLane="best" departSpeed="max" from="-587260132" to="25016107"/>
    <trip id="veh151" type="veh_passenger" depart="197.46" departLane="best" from="-25192963#5" to="589852136#1"/>
    <trip id="veh153" type="veh_passenger" depart="200.08" departLane="best" from="329190066#0" to="43167434#2"/>
    <trip id="veh154" type="veh_passenger" depart="201.39" departLane="best" from="-148614183#5" to="283006413#0"/>
    <trip id="veh155" type="veh_passenger" depart="202.69" departLane="best" departSpeed="max" from="-35403828" to="589852136#1"/>
    <trip id="veh156" type="veh_passenger" depart="204.00" departLane="best" from="31306520#2" to="38095508#3"/>
    <trip id="veh157" type="veh_passenger" depart="205.31" departLane="best" from="329190066#0" to="-283006421#2"/>
    <trip id="veh158" type="veh_passenger" depart="206.62" departLane="best" from="31091036#5" to="-25000104#3"/>
    <trip id="veh162" type="veh_passenger" depart="211.85" departLane="best" from="-148614183#4" to="-25798716#0"/>
    <trip id="veh163" type="veh_passenger" depart="213.16" departLane="best" from="-35403627" to="38095508#3"/>
    <trip id="veh164" type="veh_passenger" depart="214.46" departLane="best" from="72442767#2" to="-31091054#5"/>
    <trip id="veh165" type="veh_passenger" depart="215.77" departLane="best" from="25192964#2" to="-52710327#3"/>
    <trip id="veh167" type="veh_passenger" depart="218.39" departLane="best" departSpeed="max" from="589868387" to="-25000112#3"/>
    <trip id="veh168" type="veh_passenger" depart="219.69" departLane="best" from="72442767#8" to="-25332283#1"/>
    <trip id="veh169" type="veh_passenger" depart="221.00" departLane="best" from="723757292" to="-283006421#0"/>
    <trip id="veh170" type="veh_passenger" depart="222.31" departLane="best" from="-24751914#1" to="-723757292"/>
    <trip id="veh171" type="veh_passenger" depart="223.62" departLane="best" from="26489644#0" to="-331318343#4"/>
    <trip id="veh172" type="veh_passenger" depart="224.92" departLane="best" from="25000113#0" to="150937130#3"/>
    <trip id="veh173" type="veh_passenger" depart="226.23" departLane="best" departSpeed="max" from="-456662391" to="23045996#2"/>
    <trip id="veh174" type="veh_passenger" depart="227.54" departLane="best" from="-124907822" to="587687975#0"/>
    <trip id="veh175" type="veh_passenger" depart="228.85" departLane="best" from="151237817#3" to="266454540#7"/>
    <trip id="veh176" type="veh_passenger" depart="230.16" departLane="best" from="272111635#4" to="25798456#2"/>
    <trip id="veh177" type="veh_passenger" depart="231.46" departLane="best" departSpeed="max" from="-409152593" to="-151237827#0"/>
    <trip id="veh178" type="veh_passenger" depart="232.77" departLane="best" from="25307868#2" to="-35403505"/>
    <trip id="veh180" type="veh_passenger" depart="235.39" departLane="best" from="-331318343#0" to="-587687970#0"/>
    <trip id="veh181" type="veh_passenger" depart="236.69" departLane="best" from="-520100576#1" to="-328400400#1"/>
    <trip id="veh182" type="veh_passenger" depart="238.00" departLane="best" from="-25000113#17" to="-594582763"/>
    <trip id="veh183" type="veh_passenger" depart="239.31" departLane="best" from="594582762" to="25799153#13"/>
    <trip id="veh184" type="veh_passenger" depart="240.62" departLane="best" from="432116461#1" to="25016103#9"/>
    <trip id="veh186" type="veh_passenger" depart="243.23" departLane="best" from="-105006227#0" to="-31306520#1"/>
    <trip id="veh187" type="veh_passenger" depart="244.54" departLane="best" from="-685460477#1" to="245124126"/>
    <trip id="veh188" type="veh_passenger" depart="245.85" departLane="best" from="25194873#0" to="140648431#2"/>
    <trip id="veh190" type="veh_passenger" depart="248.46" departLane="best" from="31306481#1" to="-25194874#2"/>
    <trip id="veh191" type="veh_passenger" depart="249.77" departLane="best" from="-151237831#16" to="150937180#0"/>
    <trip id="veh192" type="veh_passenger" depart="251.08" departLane="best" from="25192962#3" to="-35414070"/>
    <trip id="veh196" type="veh_passenger" depart="256.31" departLane="best" from="-283006412#0" to="148614183#10"/>
    <trip id="veh197" type="veh_passenger" depart="257.62" departLane="best" departSpeed="max" from="35403505" to="-151237827#4"/>
    <trip id="veh198" type="veh_passenger" depart="258.92" departLane="best" from="-587687970#2" to="25192963#8"/>
    <trip id="veh200" type="veh_passenger" depart="261.54" departLane="best" from="148614183#5" to="-266454540#9"/>
    <trip id="veh201" type="veh_passenger" depart="262.85" departLane="best" from="25194873#2" to="-148614177#0"/>
    <trip id="veh202" type="veh_passenger" depart="264.16" departLane="best" from="283006412#5" to="31091055"/>
    <trip id="veh203" type="veh_passenger" depart="265.46" departLane="best" departSpeed="max" from="-233698813" to="-690827780"/>
    <trip id="veh204" type="veh_passenger" depart="266.77" departLane="best" from="-25194874#2" to="723757293"/>
    <trip id="veh205" type="veh_passenger" depart="268.08" departLane="best" from="150937119#1" to="-150937133"/>
    <trip id="veh207" type="veh_passenger" depart="270.69" departLane="best" departSpeed="max" from="-91603547#3" to="331318342#0"/>
    <trip id="veh208" type="veh_passenger" depart="272.00" departLane="best" from="25307934#0" to="9622704"/>
    <trip id="veh209" type="veh_passenger" depart="273.31" departLane="best" from="25000104#4" to="723757291#10"/>
    <trip id="veh210" type="veh_passenger" depart="274.62" departLane="best" from="43167434#0" to="25016103#4"/>
    <trip id="veh212" type="veh_passenger" depart="277.23" departLane="best" from="331318343#1" to="171257628#1"/>
    <trip id="veh213" type="veh_passenger" depart="278.54" departLane="best" from="43167439#1" to="283006414#2"/>
    <trip id="veh214" type="veh_passenger" depart="279.85" departLane="best" from="143681196#0" to="-283006412#5"/>
    <trip id="veh215" type="veh_passenger" depart="281.16" departLane="best" from="-283006412#3" to="25192969#5"/>
    <trip id="veh216" type="veh_passenger" depart="282.46" departLane="best" departSpeed="max" from="297984310" to="151237805#2"/>
    <trip id="veh217" type="veh_passenger" depart="283.77" departLane="best" from="25016105" to="-31091036#16"/>
    <trip id="veh218" type="veh_passenger" depart="285.08" departLane="best" from="-151237827#4" to="-31306520#0"/>
    <trip id="veh219" type="veh_passenger" depart="286.39" departLane="best" from="-31306481#1" to="-34022542"/>
    <trip id="veh220" type="veh_passenger" depart="287.69" departLane="best" from="151237827#0" to="-25016105"/>
    <trip id="veh221" type="veh_passenger" depart="289.00" departLane="best" from="-266454540#0" to="25799307"/>
    <trip id="veh223" type="veh_passenger" depart="291.62" departLane="best" departSpeed="max" from="-587260132" to="151237831#6"/>
    <trip id="veh224" type="veh_passenger" depart="292.92" departLane="best" from="-587687976#0" to="-25799283#1"/>
    <trip id="veh225" type="veh_passenger" depart="294.23" departLane="best" departSpeed="max" from="-589852136#1" to="46854398"/>
    <trip id="veh227" type="veh_passenger" depart="296.85" departLane="best" departSpeed="max" from="35414070" to="31091036#9"/>
    <trip id="veh228" type="veh_passenger" depart="298.16" departLane="best" departSpeed="max" from="-43169788#4" to="-148614177#0"/>
    <trip id="veh229" type="veh_passenger" depart="299.46" departLane="best" from="-37849716#0" to="310306839#3"/>
    <trip id="veh230" type="veh_passenger" depart="300.77" departLane="best" departSpeed="max" from="35403737#0" to="723757291#5"/>
    <trip id="veh231" type="veh_passenger" depart="302.08" departLane="best" from="-589852136#0" to="292487453#1"/>
    <trip id="veh232" type="veh_passenger" depart="303.39" departLane="best" from="151237831#10" to="25000113#4"/>
    <trip id="veh233" type="veh_passenger" depart="304.69" departLane="best" from="-25815003#1" to="-25814959#0"/>
    <trip id="veh234" type="veh_passenger" depart="306.00" departLane="best" from="-723757291#4" to="-150937047#3"/>
    <trip id="veh235" type="veh_passenger" depart="307.31" departLane="best" from="-35414074#0" to="25799153#19"/>
    <trip id="veh236" type="veh_passenger" depart="308.62" departLane="best" from="-52710327#2" to="-25194206#3"/>
    <trip id="veh237" type="veh_passenger" depart="309.92" departLane="best" from="-9623950" to="-25000113#5"/>
    <trip id="veh240" type="veh_passenger" depart="313.85" departLane="best" from="-148614183#9" to="25194206#5"/>
    <trip id="veh241" type="veh_passenger" depart="315.16" departLane="best" from="-25016103#2" to="140648431#0"/>
    <trip id="veh242" type="veh_passenger" depart="316.46" departLane="best" from="-150937119#0" to="-432116461#1"/>
    <trip id="veh243" type="veh_passenger" depart="317.77" departLane="best" from="-25799297#1" to="-35321086#0"/>
    <trip id="veh244" type="veh_passenger" depart="319.08" departLane="best" from="283006414#1" to="-432116461#1"/>
    <trip id="veh245" type="veh_passenger" depart="320.39" departLane="best" from="283006412#6" to="35403737#1"/>
    <trip id="veh246" type="veh_passenger" depart="321.69" departLane="best" from="-283006414#0" to="-151237831#4"/>
    <trip id="veh247" type="veh_passenger" depart="323.00" departLane="best" from="-148614183#2" to="151237831#16"/>
    <trip id="veh248" type="veh_passenger" depart="324.31" departLane="best" from="9702843#1" to="-37849716#1"/>
    <trip id="veh249" type="veh_passenger" depart="325.62" departLane="best" from="25194206#2" to="31340120#1"/>
    <trip id="veh250" type="veh_passenger" depart="326.93" departLane="best" from="25194206#4" to="31091036#0"/>
    <trip id="veh251" type="veh_passenger" depart="328.23" departLane="best" from="685460476#1" to="-25799153#18"/>
    <trip id="veh252" type="veh_passenger" depart="329.54" departLane="best" from="-148614183#20" to="-25192964#0"/>
    <trip id="veh253" type="veh_passenger" depart="330.85" departLane="best" from="-25000113#15" to="25798345#4"/>
    <trip id="veh255" type="veh_passenger" depart="333.46" departLane="best" departSpeed="max" from="25799297#0" to="31091054#2"/>
    <trip id="veh256" type="veh_passenger" depart="334.77" departLane="best" from="-25194206#3" to="25000125#1"/>
    <trip id="veh257" type="veh_passenger" depart="336.08" departLane="best" from="283006412#2" to="-25000112#1"/>
    <trip id="veh260" type="veh_passenger" depart="340.00" departLane="best" from="-331318343#3" to="25799153#13"/>
    <trip id="veh261" type="veh_passenger" depart="341.31" departLane="best" from="723757291#4" to="-520100576#1"/>
    <trip id="veh263" type="veh_passenger" depart="343.93" departLane="best" from="25799153#5" to="25192963#1"/>
    <trip id="veh264" type="veh_passenger" depart="345.23" departLane="best" from="-217390581#0" to="31306481#3"/>
    <trip id="veh265" type="veh_passenger" depart="346.54" departLane="best" from="35403548#0" to="25000113#16"/>
    <trip id="veh266" type="veh_passenger" depart="347.85" departLane="best" from="-25000112#6" to="9622672"/>
    <trip id="veh267" type="veh_passenger" depart="349.16" departLane="best" from="31091036#13" to="-37452316#2"/>
    <trip id="veh268" type="veh_passenger" depart="350.46" departLane="best" from="-685460476#2" to="-43167434#0"/>
    <trip id="veh270" type="veh_passenger" depart="353.08" departLane="best" departSpeed="max" from="35403505" to="35321083#2"/>
    <trip id="veh271" type="veh_passenger" depart="354.39" departLane="best" departSpeed="max" from="-233698813" to="72442767#10"/>
    <trip id="veh272" type="veh_passenger" depart="355.69" departLane="best" from="25192963#6" to="35403627"/>
    <trip id="veh274" type="veh_passenger" depart="358.31" departLane="best" from="266454540#1" to="72442767#8"/>
    <trip id="veh275" type="veh_passenger" depart="359.62" departLane="best" from="-31091055" to="331318342#8"/>
    <trip id="veh276" type="veh_passenger" depart="360.93" departLane="best" from="151237817#3" to="148614183#23"/>
    <trip id="veh277" type="veh_passenger" depart="362.23" departLane="best" from="-31091054#2" to="37452306#1"/>
    <trip id="veh278" type="veh_passenger" depart="363.54" departLane="best" from="331318343#2" to="-171257628#0"/>
    <trip id="veh279" type="veh_passenger" depart="364.85" departLane="best" departSpeed="max" from="408367260" to="-266454540#9"/>
    <trip id="veh280" type="veh_passenger" depart="366.16" departLane="best" departSpeed="max" from="-9622704" to="25016103#10"/>
    <trip id="veh281" type="veh_passenger" depart="367.46" departLane="best" from="-43169788#1" to="-150937047#3"/>
    <trip id="veh284" type="veh_passenger" depart="371.39" departLane="best" from="25799297#1" to="-31091036#6"/>
    <trip id="veh285" type="veh_passenger" depart="372.69" departLane="best" from="-148614177#1" to="690827780"/>
    <trip id="veh286" type="veh_passenger" depart="374.00" departLane="best" from="-151237831#3" to="266454540#8"/>
    <trip id="veh287" type="veh_passenger" depart="375.31" departLane="best" from="25799153#5" to="25194206#8"/>
    <trip id="veh291" type="veh_passenger" depart="380.54" departLane="best" from="217386905" to="148614183#0"/>
    <trip id="veh292" type="veh_passenger" depart="381.85" departLane="best" from="151237805#0" to="-690827780"/>
    <trip id="veh293" type="veh_passenger" depart="383.16" departLane="best" from="283006412#0" to="-35403505"/>
    <trip id="veh294" type="veh_passenger" depart="384.46" departLane="best" from="25799297#3" to="-30689380#1"/>
    <trip id="veh295" type="veh_passenger" depart="385.77" departLane="best" from="-283006412#7" to="-25000113#10"/>
    <trip id="veh296" type="veh_passenger" depart="387.08" departLane="best" departSpeed="max" from="-25798345#4" to="-25000113#1"/>