<?xml version="1.0" encoding="UTF-8"?>

<!-- generated on 09/23/19 12:12:15 by Eclipse SUMO netedit Version v1_3_1+0387-af6f2b6888
<configuration xmlns:xsi="http://www.w3.org/2001/XMLSchema-instance" xsi:noNamespaceSchemaLocation="http://sumo.dlr.de/xsd/netconvertConfiguration.xsd">

    <input>
        <sumo-net-file value="D:\Praktikum\Praktikum_DLR\BusmitNetEdit\Bus.net.xml"/>
    </input>

    <output>
        <output-file value="D:\Praktikum\Praktikum_DLR\BusmitNetEdit\Bus.net.xml"/>
    </output>

    <processing>
        <geometry.max-grade.fix value="false"/>
        <offset.disable-normalization value="true"/>
        <lefthand value="false"/>
    </processing>

    <junctions>
        <no-turnarounds value="true"/>
        <junctions.corner-detail value="5"/>
        <junctions.limit-turn-speed value="5.5"/>
        <rectangular-lane-cut value="false"/>
    </junctions>

    <pedestrian>
        <walkingareas value="false"/>
    </pedestrian>

    <netedit>
        <additional-files value="D:\Praktikum\Praktikum_DLR\BusmitNetEdit\Bus.add.xml"/>
        <route-files value="D:\Praktikum\Praktikum_DLR\BusmitNetEdit\Bus.rou.xml"/>
    </netedit>

</configuration>
-->

<routes xmlns:xsi="http://www.w3.org/2001/XMLSchema-instance" xsi:noNamespaceSchemaLocation="http://sumo.dlr.de/xsd/routes_file.xsd">
    <vType id="Bus1" vClass="bus" />
    <personFlow id="p0" begin="0" end="10000" period="100">
        <personTrip from="gneE0" to="gneE4" modes="public"/>
		<personTrip from="gneE1" to="gneE4" modes="public"/>
    </personFlow>
    <flow id="Bus01" begin="0.00" line="bus" from="gneE0" type="Bus1" to="gneE4" end="10000.00" period="300.00">
        <stop busStop="gneE0" until="70.00"/>
        <stop busStop="gneE1" until="105.00"/>
        <stop busStop="gneE2" until="140.00"/>
        <stop busStop="gneE3" until="175.00"/>
        <stop busStop="gneE4" until="210.00"/>
    </flow>
</routes>
