<?xml version="1.0" encoding="UTF-8"?>

<!-- generated on 09/23/19 11:30:34 by Eclipse SUMO netedit Version v1_3_1+0387-af6f2b6888
<configuration xmlns:xsi="http://www.w3.org/2001/XMLSchema-instance" xsi:noNamespaceSchemaLocation="http://sumo.dlr.de/xsd/netconvertConfiguration.xsd">

    <input>
        <sumo-net-file value="D:\Praktikum\Praktikum_DLR\BusmitNetEdit\Bus.net.xml"/>
    </input>

    <output>
        <output-file value="D:\Praktikum\Praktikum_DLR\BusmitNetEdit\Bus.net.xml"/>
    </output>

    <processing>
        <geometry.max-grade.fix value="false"/>
        <offset.disable-normalization value="true"/>
        <lefthand value="false"/>
    </processing>

    <junctions>
        <no-turnarounds value="true"/>
        <junctions.corner-detail value="5"/>
        <junctions.limit-turn-speed value="5.5"/>
        <rectangular-lane-cut value="false"/>
    </junctions>

    <pedestrian>
        <walkingareas value="false"/>
    </pedestrian>

    <netedit>
        <additional-files value="D:\Praktikum\Praktikum_DLR\BusmitNetEdit\Bus.add.xml"/>
    </netedit>

</configuration>
-->

<additional xmlns:xsi="http://www.w3.org/2001/XMLSchema-instance" xsi:noNamespaceSchemaLocation="http://sumo.dlr.de/xsd/additional_file.xsd">
    <busStop id="gneE0" lane="gneE0_0" startPos="42.24" endPos="52.24"/>
    <busStop id="gneE1" lane="gneE1_0" startPos="36.19" endPos="46.19"/>
    <busStop id="gneE2" lane="gneE2_0" startPos="34.13" endPos="44.13"/>
    <busStop id="gneE3" lane="gneE3_0" startPos="36.60" endPos="46.60"/>
    <busStop id="gneE4" lane="gneE4_0" startPos="52.32" endPos="62.32"/>
</additional>
