<?xml version="1.0" encoding="UTF-8"?>

<!-- generated on 09/20/19 10:12:15 by Eclipse SUMO netedit Version v1_3_1+0387-af6f2b6888
<configuration xmlns:xsi="http://www.w3.org/2001/XMLSchema-instance" xsi:noNamespaceSchemaLocation="http://sumo.dlr.de/xsd/netconvertConfiguration.xsd">

    <input>
        <sumo-net-file value="C:\Users\camil\Sumo\Crash\Bus.net.xml"/>
    </input>

    <output>
        <output-file value="C:\Users\camil\Sumo\Crash\Bus.net.xml"/>
    </output>

    <processing>
        <geometry.max-grade.fix value="false"/>
        <offset.disable-normalization value="true"/>
        <lefthand value="false"/>
    </processing>

    <junctions>
        <no-turnarounds value="true"/>
        <junctions.corner-detail value="5"/>
        <junctions.limit-turn-speed value="5.5"/>
        <rectangular-lane-cut value="false"/>
    </junctions>

    <pedestrian>
        <walkingareas value="false"/>
    </pedestrian>

    <netedit>
        <additional-files value="C:\Users\camil\Sumo\Crash\Bus.add.xml"/>
        <route-files value="C:\Users\camil\Sumo\Crash\Bus.rou.xml"/>
    </netedit>

</configuration>
-->

<routes xmlns:xsi="http://www.w3.org/2001/XMLSchema-instance" xsi:noNamespaceSchemaLocation="http://sumo.dlr.de/xsd/routes_file.xsd">
    <person id="p0" depart="0.00">
        <personTrip from="gneE0" to="gneE4" modes="public"/>
    </person>
    <flow id="bus" begin="0.00" line="bus" from="gneE0" to="gneE4" end="1000.00" period="300.00">
        <stop busStop="gneE0" until="10.00"/>
        <stop busStop="gneE1" until="110.00"/>
        <stop busStop="gneE2" until="210.00"/>
        <stop busStop="gneE3" until="310.00"/>
        <stop busStop="gneE4" until="410.00"/>
    </flow>
</routes>
