<?xml version="1.0" encoding="UTF-8"?>

<!-- generated on 09/23/19 12:06:59 by Eclipse SUMO Version 1.3.1
-->

<configuration xmlns:xsi="http://www.w3.org/2001/XMLSchema-instance" xsi:noNamespaceSchemaLocation="http://sumo.dlr.de/xsd/sumoConfiguration.xsd">

    <input>
        <net-file value="Bus.net.xml"/>
        <route-files value="Bus.rou.xml"/>
        <additional-files value="Bus.add.xml"/>
    </input>

</configuration>
