<?xml version="1.0" encoding="UTF-8"?>

<!-- generated on 09/18/19 15:07:47 by Eclipse SUMO duarouter Version 1.3.1
<configuration xmlns:xsi="http://www.w3.org/2001/XMLSchema-instance" xsi:noNamespaceSchemaLocation="http://sumo.dlr.de/xsd/duarouterConfiguration.xsd">

    <input>
        <net-file value="osm.net.xml"/>
        <route-files value="osm.bicycle.trips.xml"/>
    </input>

    <output>
        <output-file value="osm.bicycle.trips.xml.tmp"/>
        <write-trips value="true"/>
    </output>

    <time>
        <begin value="0"/>
        <end value="3600.0"/>
    </time>

    <report>
        <no-warnings value="true"/>
        <ignore-errors value="true"/>
        <no-step-log value="true"/>
    </report>

</configuration>
-->

<routes xmlns:xsi="http://www.w3.org/2001/XMLSchema-instance" xsi:noNamespaceSchemaLocation="http://sumo.dlr.de/xsd/routes_file.xsd">
    <vType id="bike_bicycle" vClass="bicycle"/>
    <trip id="bike0" type="bike_bicycle" depart="0.00" departLane="best" from="25408846" to="-148614183#7"/>
    <trip id="bike1" type="bike_bicycle" depart="20.01" departLane="best" from="-331318343#4" to="-283006412#4"/>
    <trip id="bike2" type="bike_bicycle" depart="40.02" departLane="best" from="283006412#7" to="264945978#1"/>
    <trip id="bike4" type="bike_bicycle" depart="80.04" departLane="best" departSpeed="max" from="-603978945" to="-150937060"/>
    <trip id="bike5" type="bike_bicycle" depart="100.05" departLane="best" from="-266454540#3" to="154754318#1"/>
    <trip id="bike6" type="bike_bicycle" depart="120.07" departLane="best" from="-148614183#6" to="-26489568#0"/>
    <trip id="bike7" type="bike_bicycle" depart="140.08" departLane="best" from="25798924#0" to="245124127"/>
    <trip id="bike8" type="bike_bicycle" depart="160.09" departLane="best" from="-266454540#7" to="25194206#6"/>
    <trip id="bike9" type="bike_bicycle" depart="180.10" departLane="best" from="35403473#1" to="-140648431#0"/>
    <trip id="bike10" type="bike_bicycle" depart="200.11" departLane="best" from="353906000#3" to="283006412#5"/>
    <trip id="bike11" type="bike_bicycle" depart="220.12" departLane="best" from="-384630164#1" to="-25798456#0"/>
    <trip id="bike12" type="bike_bicycle" depart="240.13" departLane="best" from="638460947#1" to="-43178206#1"/>
    <trip id="bike13" type="bike_bicycle" depart="260.14" departLane="best" from="-217386902#0" to="-230770533"/>
    <trip id="bike14" type="bike_bicycle" depart="280.15" departLane="best" departSpeed="max" from="37643957" to="255676018"/>
    <trip id="bike15" type="bike_bicycle" depart="300.16" departLane="best" from="35390719#1" to="31340120#1"/>
    <trip id="bike16" type="bike_bicycle" depart="320.17" departLane="best" from="151237831#5" to="72410622#1"/>
    <trip id="bike17" type="bike_bicycle" depart="340.19" departLane="best" departSpeed="max" from="-462602744" to="25000112#4"/>
    <trip id="bike19" type="bike_bicycle" depart="380.21" departLane="best" from="384630164#1" to="25192963#0"/>
    <trip id="bike20" type="bike_bicycle" depart="400.22" departLane="best" from="26489633" to="-150937180#0"/>
    <trip id="bike21" type="bike_bicycle" depart="420.23" departLane="best" from="-283006412#1" to="-35403555#0"/>
    <trip id="bike22" type="bike_bicycle" depart="440.24" departLane="best" from="-172696063#0" to="-297984310"/>
    <trip id="bike23" type="bike_bicycle" depart="460.25" departLane="best" departSpeed="max" from="-231386655" to="-35321083#0"/>
    <trip id="bike24" type="bike_bicycle" depart="480.26" departLane="best" from="25332283#1" to="-520100577"/>
    <trip id="bike25" type="bike_bicycle" depart="500.27" departLane="best" departSpeed="max" from="-457267748" to="-264945983#3"/>
    <trip id="bike27" type="bike_bicycle" depart="540.30" departLane="best" from="25798456#1" to="25798456#1"/>
    <trip id="bike28" type="bike_bicycle" depart="560.31" departLane="best" from="-25799153#6" to="31340120#1"/>
    <trip id="bike29" type="bike_bicycle" depart="580.32" departLane="best" from="-25798952#0" to="-587687976#2"/>
    <trip id="bike31" type="bike_bicycle" depart="620.34" departLane="best" from="193875628#0" to="266454540#8"/>
    <trip id="bike32" type="bike_bicycle" depart="640.35" departLane="best" from="37452318#2" to="35403828"/>
    <trip id="bike33" type="bike_bicycle" depart="660.36" departLane="best" from="-283006412#4" to="-150937106#0"/>
    <trip id="bike34" type="bike_bicycle" depart="680.37" departLane="best" departSpeed="max" from="-358701394" to="-331318342#5"/>
    <trip id="bike35" type="bike_bicycle" depart="700.38" departLane="best" departSpeed="max" from="-26489805#1" to="589856939"/>
    <trip id="bike36" type="bike_bicycle" depart="720.39" departLane="best" from="43167439#0" to="-37849738#6"/>
    <trip id="bike37" type="bike_bicycle" depart="740.40" departLane="best" from="25799153#15" to="-723757291#5"/>
    <trip id="bike38" type="bike_bicycle" depart="760.42" departLane="best" departSpeed="max" from="505734195" to="150937106#0"/>
    <trip id="bike41" type="bike_bicycle" depart="820.45" departLane="best" from="25000104#2" to="479315065#2"/>
    <trip id="bike42" type="bike_bicycle" depart="840.46" departLane="best" from="-520100576#1" to="-279475603"/>
    <trip id="bike43" type="bike_bicycle" depart="860.47" departLane="best" from="9624204#6" to="172696062#2"/>
    <trip id="bike44" type="bike_bicycle" depart="880.48" departLane="best" from="-217386896#1" to="-151237803#1"/>
    <trip id="bike45" type="bike_bicycle" depart="900.49" departLane="best" from="-25000112#4" to="25799239#4"/>
    <trip id="bike46" type="bike_bicycle" depart="920.50" departLane="best" from="336735697#0" to="124907822"/>
    <trip id="bike47" type="bike_bicycle" depart="940.51" departLane="best" from="-151237827#3" to="-587695675"/>
    <trip id="bike48" type="bike_bicycle" depart="960.52" departLane="best" from="9624204#2" to="217386899#2"/>
    <trip id="bike49" type="bike_bicycle" depart="980.54" departLane="best" from="723757291#6" to="441521935"/>
    <trip id="bike50" type="bike_bicycle" depart="1000.55" departLane="best" from="-142540752#1" to="31094587#3"/>
    <trip id="bike51" type="bike_bicycle" depart="1020.56" departLane="best" departSpeed="max" from="26312463" to="217390627#0"/>
    <trip id="bike53" type="bike_bicycle" depart="1060.58" departLane="best" from="-25000112#8" to="142540752#1"/>
    <trip id="bike54" type="bike_bicycle" depart="1080.59" departLane="best" from="-91603547#1" to="682460124#2"/>
    <trip id="bike59" type="bike_bicycle" depart="1180.65" departLane="best" from="25016109#0" to="-25798273#0"/>
    <trip id="bike60" type="bike_bicycle" depart="1200.66" departLane="best" from="31094587#3" to="23045996#3"/>
    <trip id="bike61" type="bike_bicycle" depart="1220.67" departLane="best" from="328402889#1" to="217386901#0"/>
    <trip id="bike62" type="bike_bicycle" depart="1240.68" departLane="best" from="-105006227#0" to="-410646532#1"/>
    <trip id="bike63" type="bike_bicycle" depart="1260.69" departLane="best" from="-148614183#10" to="587687964#0"/>
    <trip id="bike64" type="bike_bicycle" depart="1280.70" departLane="best" from="43169788#2" to="38095774#1"/>
    <trip id="bike65" type="bike_bicycle" depart="1300.71" departLane="best" from="-355345460#0" to="-151237827#2"/>
    <trip id="bike66" type="bike_bicycle" depart="1320.72" departLane="best" from="43169788#0" to="589941539#1"/>
    <trip id="bike67" type="bike_bicycle" depart="1340.73" departLane="best" from="-193875628#1" to="151237807#0"/>
    <trip id="bike68" type="bike_bicycle" depart="1360.74" departLane="best" from="-151237831#4" to="353701675#0"/>
    <trip id="bike69" type="bike_bicycle" depart="1380.75" departLane="best" from="31306481#5" to="-25192963#9"/>
    <trip id="bike70" type="bike_bicycle" depart="1400.77" departLane="best" from="143681196#2" to="25000104#7"/>
    <trip id="bike72" type="bike_bicycle" depart="1440.79" departLane="best" departSpeed="max" from="-606257411" to="-266454540#2"/>
    <trip id="bike74" type="bike_bicycle" depart="1480.81" departLane="best" from="-26489598#0" to="-37849716#1"/>
    <trip id="bike75" type="bike_bicycle" depart="1500.82" departLane="best" departSpeed="max" from="9624002" to="26407379#0"/>
    <trip id="bike76" type="bike_bicycle" depart="1520.83" departLane="best" from="-723757589#1" to="193875622#0"/>
    <trip id="bike77" type="bike_bicycle" depart="1540.84" departLane="best" from="-25016103#4" to="-283006412#7"/>
    <trip id="bike78" type="bike_bicycle" depart="1560.85" departLane="best" departSpeed="max" from="-38095571" to="25194206#4"/>
    <trip id="bike79" type="bike_bicycle" depart="1580.86" departLane="best" from="-283006412#7" to="-279808663#3"/>
    <trip id="bike80" type="bike_bicycle" depart="1600.87" departLane="best" from="-151237831#9" to="25799297#3"/>
    <trip id="bike81" type="bike_bicycle" depart="1620.89" departLane="best" from="-283006412#4" to="505734193"/>
    <trip id="bike82" type="bike_bicycle" depart="1640.90" departLane="best" from="38095774#2" to="-171257628#0"/>
    <trip id="bike83" type="bike_bicycle" depart="1660.91" departLane="best" from="-31091036#0" to="26489644#3"/>
    <trip id="bike84" type="bike_bicycle" depart="1680.92" departLane="best" from="-264945982" to="-25192969#1"/>
    <trip id="bike85" type="bike_bicycle" depart="1700.93" departLane="best" from="587295096" to="25016108#6"/>
    <trip id="bike86" type="bike_bicycle" depart="1720.94" departLane="best" from="141520970#2" to="355340618"/>
    <trip id="bike87" type="bike_bicycle" depart="1740.95" departLane="best" from="35390719#2" to="-26396281#0"/>
    <trip id="bike88" type="bike_bicycle" depart="1760.96" departLane="best" from="-217390627#0" to="140648431#2"/>
    <trip id="bike89" type="bike_bicycle" depart="1780.97" departLane="best" departSpeed="max" from="-606257411" to="150937119#0"/>
    <trip id="bike90" type="bike_bicycle" depart="1800.98" departLane="best" departSpeed="max" from="279321975#0" to="26489789#1"/>
    <trip id="bike91" type="bike_bicycle" depart="1820.99" departLane="best" from="724688434#1" to="-245124128"/>
    <trip id="bike92" type="bike_bicycle" depart="1841.01" departLane="best" departSpeed="max" from="-52764138#3" to="-433933817#1"/>
    <trip id="bike93" type="bike_bicycle" depart="1861.02" departLane="best" from="384630164#1" to="-31306481#5"/>
    <trip id="bike94" type="bike_bicycle" depart="1881.03" departLane="best" from="-26396111#5" to="148614183#23"/>
    <trip id="bike95" type="bike_bicycle" depart="1901.04" departLane="best" from="-594582763" to="-35321083#0"/>
    <trip id="bike96" type="bike_bicycle" depart="1921.05" departLane="best" from="-31306481#2" to="587291619#0"/>
    <trip id="bike97" type="bike_bicycle" depart="1941.06" departLane="best" departSpeed="max" from="-72440913" to="441521936#0"/>
    <trip id="bike98" type="bike_bicycle" depart="1961.07" departLane="best" from="173640273#4" to="-151237805#1"/>
    <trip id="bike99" type="bike_bicycle" depart="1981.08" departLane="best" from="9702843#0" to="384630981"/>
    <trip id="bike100" type="bike_bicycle" depart="2001.09" departLane="best" from="723757291#11" to="587291620#0"/>
    <trip id="bike102" type="bike_bicycle" depart="2041.12" departLane="best" from="148614183#17" to="-266454540#6"/>
    <trip id="bike103" type="bike_bicycle" depart="2061.13" departLane="best" from="-52710327#2" to="-151237827#4"/>
    <trip id="bike104" type="bike_bicycle" depart="2081.14" departLane="best" from="-462826507" to="75252111#4"/>
    <trip id="bike106" type="bike_bicycle" depart="2121.16" departLane="best" departSpeed="max" from="-91603547#3" to="124907823#1"/>
    <trip id="bike107" type="bike_bicycle" depart="2141.17" departLane="best" from="638460947#1" to="9624204#1"/>
    <trip id="bike108" type="bike_bicycle" depart="2161.18" departLane="best" from="193875622#1" to="31091054#1"/>
    <trip id="bike109" type="bike_bicycle" depart="2181.19" departLane="best" from="-25629001#1" to="-35414072#4"/>
    <trip id="bike110" type="bike_bicycle" depart="2201.20" departLane="best" from="723757291#11" to="25192963#5"/>
    <trip id="bike111" type="bike_bicycle" depart="2221.21" departLane="best" from="154754318#1" to="331318343#2"/>
    <trip id="bike112" type="bike_bicycle" depart="2241.22" departLane="best" from="-151237805#4" to="25192969#1"/>
    <trip id="bike113" type="bike_bicycle" depart="2261.24" departLane="best" from="150937113#4" to="43169788#2"/>
    <trip id="bike114" type="bike_bicycle" depart="2281.25" departLane="best" from="-25798345#3" to="708757428"/>
    <trip id="bike116" type="bike_bicycle" depart="2321.27" departLane="best" from="25000113#2" to="26489805#1"/>
    <trip id="bike117" type="bike_bicycle" depart="2341.28" departLane="best" from="-294991104#0" to="-25016105"/>
    <trip id="bike118" type="bike_bicycle" depart="2361.29" departLane="best" from="441521961" to="-31094587#5"/>
    <trip id="bike119" type="bike_bicycle" depart="2381.30" departLane="best" from="25000113#17" to="25799153#17"/>
    <trip id="bike120" type="bike_bicycle" depart="2401.31" departLane="best" from="-589856938#0" to="25192969#0"/>
    <trip id="bike121" type="bike_bicycle" depart="2421.32" departLane="best" from="151237807#0" to="587687975#1"/>
    <trip id="bike122" type="bike_bicycle" depart="2441.33" departLane="best" departSpeed="max" from="-26489603#2" to="31091036#5"/>
    <trip id="bike123" type="bike_bicycle" depart="2461.34" departLane="best" from="-31091036#10" to="-723757291#5"/>
    <trip id="bike125" type="bike_bicycle" depart="2501.37" departLane="best" departSpeed="max" from="-358701394" to="336735697#2"/>
    <trip id="bike126" type="bike_bicycle" depart="2521.38" departLane="best" from="-15228215#3" to="150937093#2"/>
    <trip id="bike127" type="bike_bicycle" depart="2541.39" departLane="best" from="9628124#1" to="9624204#2"/>
    <trip id="bike128" type="bike_bicycle" depart="2561.40" departLane="best" from="-154754299#0" to="-266454540#5"/>
    <trip id="bike130" type="bike_bicycle" depart="2601.42" departLane="best" from="43178412#0" to="457267748"/>
    <trip id="bike131" type="bike_bicycle" depart="2621.43" departLane="best" departSpeed="max" from="-457267747" to="-25798716#1"/>
    <trip id="bike133" type="bike_bicycle" depart="2661.45" departLane="best" from="25192962#0" to="78061247"/>
    <trip id="bike134" type="bike_bicycle" depart="2681.47" departLane="best" from="25799153#10" to="-141520970#1"/>
    <trip id="bike136" type="bike_bicycle" depart="2721.49" departLane="best" from="25799239#2" to="587695669"/>
    <trip id="bike137" type="bike_bicycle" depart="2741.50" departLane="best" from="-25192965#0" to="-25016103#0"/>
    <trip id="bike138" type="bike_bicycle" depart="2761.51" departLane="best" from="-25000104#6" to="25000112#7"/>
    <trip id="bike139" type="bike_bicycle" depart="2781.52" departLane="best" from="-331318342#6" to="25629001#1"/>
    <trip id="bike140" type="bike_bicycle" depart="2801.53" departLane="best" from="266454540#1" to="-26489644#2"/>
    <trip id="bike142" type="bike_bicycle" depart="2841.55" departLane="best" from="148614183#24" to="505734193"/>
    <trip id="bike143" type="bike_bicycle" depart="2861.56" departLane="best" departSpeed="max" from="37643956" to="-217390581#0"/>
    <trip id="bike144" type="bike_bicycle" depart="2881.57" departLane="best" departSpeed="max" from="-606257411" to="-35096784#0"/>
    <trip id="bike145" type="bike_bicycle" depart="2901.59" departLane="best" from="-128020893#3" to="35403555#2"/>
    <trip id="bike147" type="bike_bicycle" depart="2941.61" departLane="best" from="284321548#2" to="25000112#4"/>
    <trip id="bike148" type="bike_bicycle" depart="2961.62" departLane="best" departSpeed="max" from="-706438770" to="-142540752#0"/>
    <trip id="bike149" type="bike_bicycle" depart="2981.63" departLane="best" from="-154754318#1" to="462590368"/>
    <trip id="bike150" type="bike_bicycle" depart="3001.64" departLane="best" from="462852146" to="24751914#1"/>
    <trip id="bike151" type="bike_bicycle" depart="3021.65" departLane="best" departSpeed="max" from="37452301#0" to="25192965#0"/>
    <trip id="bike152" type="bike_bicycle" depart="3041.66" departLane="best" from="-25332283#0" to="-25192963#7"/>
    <trip id="bike153" type="bike_bicycle" depart="3061.67" departLane="best" from="-355345464#0" to="479317198"/>
    <trip id="bike154" type="bike_bicycle" depart="3081.68" departLane="best" from="342544712#1" to="440653818"/>
    <trip id="bike155" type="bike_bicycle" depart="3101.69" departLane="best" departSpeed="max" from="462729060" to="-26624363#1"/>
    <trip id="bike156" type="bike_bicycle" depart="3121.71" departLane="best" from="-31306481#1" to="-25000104#4"/>
    <trip id="bike158" type="bike_bicycle" depart="3161.73" departLane="best" from="-587687959#0" to="25799153#20"/>
    <trip id="bike159" type="bike_bicycle" depart="3181.74" departLane="best" from="-25629001#1" to="587687964#2"/>
    <trip id="bike160" type="bike_bicycle" depart="3201.75" departLane="best" departSpeed="max" from="408367260" to="72416933#2"/>
    <trip id="bike161" type="bike_bicycle" depart="3221.76" departLane="best" from="35403548#0" to="460960579"/>
    <trip id="bike162" type="bike_bicycle" depart="3241.77" departLane="best" from="-148614183#24" to="329190066#0"/>
    <trip id="bike163" type="bike_bicycle" depart="3261.78" departLane="best" from="-37849738#3" to="587687966"/>
    <trip id="bike164" type="bike_bicycle" depart="3281.79" departLane="best" from="353892426#0" to="441521957#2"/>
    <trip id="bike165" type="bike_bicycle" depart="3301.80" departLane="best" from="35403548#0" to="-331318342#3"/>
    <trip id="bike166" type="bike_bicycle" depart="3321.81" departLane="best" from="331318342#5" to="-25000113#1"/>
    <trip id="bike167" type="bike_bicycle" depart="3341.83" departLane="best" departSpeed="max" from="43167423" to="433933817#0"/>
    <trip id="bike170" type="bike_bicycle" depart="3401.86" departLane="best" departSpeed="max" from="34022542" to="-284321548#0"/>
    <trip id="bike171" type="bike_bicycle" depart="3421.87" departLane="best" from="-148614183#20" to="-26396367#0"/>
    <trip id="bike173" type="bike_bicycle" depart="3461.89" departLane="best" departSpeed="max" from="708757427" to="-35321083#2"/>
    <trip id="bike174" type="bike_bicycle" depart="3481.90" departLane="best" departSpeed="max" from="25629001#0" to="-72410622#0"/>
    <trip id="bike175" type="bike_bicycle" depart="3501.91" departLane="best" from="72442767#4" to="217390600"/>
    <trip id="bike176" type="bike_bicycle" depart="3521.92" departLane="best" from="587687966" to="-25016103#0"/>
    <trip id="bike178" type="bike_bicycle" depart="3561.95" departLane="best" from="682460125#2" to="-331318342#0"/>
    <trip id="bike179" type="bike_bicycle" depart="3581.96" departLane="best" from="-25000112#1" to="142540752#1"/>
</routes>
