<?xml version="1.0" encoding="UTF-8"?>

<!-- generated on 09/16/19 14:50:04 by Eclipse SUMO polyconvert Version 1.3.1
<configuration xmlns:xsi="http://www.w3.org/2001/XMLSchema-instance" xsi:noNamespaceSchemaLocation="http://sumo.dlr.de/xsd/polyconvertConfiguration.xsd">

    <input>
        <net-file value="osm.net.xml"/>
        <osm-files value="osm_bbox.osm.xml"/>
        <osm.keep-full-type value="true"/>
        <type-file value="C:\Program%20Files%20(x86)\Eclipse\Sumo\data\typemap\osmPolyconvert.typ.xml"/>
    </input>

    <output>
        <output-file value="osm.poly.xml"/>
    </output>

    <processing>
        <poi-layer-offset value="5"/>
    </processing>

    <report>
        <verbose value="true"/>
    </report>

</configuration>
-->

<additional xmlns:xsi="http://www.w3.org/2001/XMLSchema-instance" xsi:noNamespaceSchemaLocation="http://sumo.dlr.de/xsd/additional_file.xsd">
    <location netOffset="-403897.87,-5809801.97" convBoundary="-7734.28,-779.93,13318.61,8215.23" origBoundary="13.470234,52.423701,13.781977,52.502385" projParameter="+proj=utm +zone=33 +ellps=WGS84 +datum=WGS84 +units=m +no_defs"/>

    <poly id="10275147" type="natural.water" color="181,209,209" fill="1" layer="-4.00" shape="862.343838,2107.972356 859.944765,2108.708729 857.471156,2109.457675 841.104612,2115.594299 836.993916,2117.109363 832.923349,2118.590271 799.845784,2130.970567 717.495210,2158.038056 697.009353,2160.327544 628.319929,2144.883887 556.776455,2128.128153 508.578116,2113.500263 489.166842,2108.837890 309.847355,2107.292477 292.149139,2108.561265 257.383816,2108.950426 223.915762,2104.752634 200.785408,2100.086123 167.472123,2081.198689 148.315062,2071.481244 140.954226,2067.741931 130.057851,2060.155193 114.922940,2049.624915 93.107757,2037.834473 74.728283,2023.050663 63.773778,1999.988212 47.124770,1984.013497 22.307060,1968.198655 9.644350,1947.495181 -0.669358,1927.324346 -20.921035,1906.190888 -30.084381,1885.407886 -33.925921,1868.025571 -33.423610,1854.441376 -41.354961,1846.240628 -53.440611,1835.940434 -51.749784,1833.058937 -56.347151,1829.510581 -58.852277,1831.428890 -64.716890,1827.048614 -84.820897,1810.018198 -89.032979,1807.052031 -83.248581,1802.821919 -91.910847,1795.147384 -105.501108,1805.227205 -121.419924,1805.761621 -131.822833,1805.019711 -148.734041,1803.136952 -151.609393,1802.815006 -154.309858,1801.009805 -181.251298,1793.816131 -203.815415,1785.880294 -232.142225,1768.377509 -236.393084,1754.430333 -233.414458,1750.310716 -228.518528,1744.807181 -234.183255,1740.578950 -236.239756,1734.866872 -227.777972,1728.837202 -236.470347,1715.833891 -248.424075,1724.424429 -254.675592,1728.407991 -254.866165,1729.090449 -258.593957,1731.411153 -263.288393,1731.937201 -270.193366,1730.336958 -277.752622,1727.269734 -292.053035,1737.530911 -305.281917,1746.613936 -309.127444,1746.745061 -312.652080,1744.867112 -317.810545,1747.382848 -321.992735,1749.412106 -341.682879,1758.366189 -344.575266,1759.602405 -370.691872,1746.318461 -378.440304,1742.275971 -388.308408,1736.928827 -388.156444,1743.279101 -389.028470,1745.610556 -386.259772,1751.920543 -387.422347,1762.302201 -389.383769,1782.891474 -390.042589,1790.537232 -391.891509,1796.782175 -393.672224,1802.691982 -402.358227,1828.086553 -410.635381,1847.642796 -413.279177,1861.869982 -417.700570,1910.179360 -418.377721,1917.580701 -419.476547,1927.048742 -419.877826,1932.920323 -420.508471,1939.920195 -422.542292,1966.152080 -428.332770,1974.199136 -431.218136,1978.205783 -447.532058,1987.316490 -468.538586,1997.721203 -468.860440,1998.639910 -474.928816,2002.575663 -516.076510,2023.468537 -538.231694,2034.908676 -576.531799,2051.584697 -582.744395,2050.950408 -627.850148,2039.632872 -629.927448,2039.095211 -661.977030,2031.059057 -695.694318,2022.577540 -700.246600,2025.126251 -703.492117,2027.749344 -722.808313,2054.889596 -724.980305,2056.100714 -725.356909,2057.343190 -726.616506,2060.005027 -728.660466,2061.847837 -730.906764,2063.427600 -733.741883,2064.451521 -736.949021,2064.537021 -738.816096,2063.973006 -753.670062,2059.514918 -772.485119,2053.454903 -786.042061,2068.910158 -784.260677,2091.317326 -765.590655,2096.923963 -746.540984,2103.513448 -741.385457,2106.048768 -741.276627,2113.979873 -743.333850,2122.042710 -752.623719,2150.131403 -757.074217,2161.279012 -784.956136,2197.334008 -795.179780,2211.499611 -805.854544,2232.083054 -820.390436,2264.381149 -831.737557,2289.806869 -817.697497,2321.941468 -801.393624,2347.889548 -801.021180,2348.505287 -800.325834,2349.637602 -796.858548,2354.820924 -768.008554,2383.392186 -747.297925,2393.253463 -736.750133,2394.158077 -701.314371,2397.175586 -633.765653,2402.943034 -622.818527,2404.107062 -609.085390,2407.975627 -602.604513,2409.828508 -585.737528,2415.771717 -582.721122,2416.713710 -581.072741,2417.226453 -565.536911,2418.055466 -546.763278,2418.987691 -428.438952,2330.173204 -405.901090,2315.087614 -392.173953,2305.849820 -377.695079,2296.118852 -365.129682,2280.684219 -354.527544,2270.506541 -338.474749,2247.103622 -310.176871,2218.931807 -287.754124,2201.401209 -274.479783,2192.272789 -270.515502,2191.282604 -266.665705,2183.073541 -271.256142,2169.133058 -278.570272,2157.393462 -300.300206,2147.550223 -301.910445,2143.442760 -297.971900,2138.369616 -282.782291,2128.446974 -279.969710,2122.116395 -279.050345,2114.231881 -278.728978,2100.818084 -284.200124,2092.580563 -291.994755,2087.192548 -303.569265,2086.652043 -315.041945,2099.261146 -319.505800,2117.051137 -313.817774,2133.562515 -309.053184,2145.285359 -321.299620,2144.101626 -337.939467,2142.136337 -345.512349,2118.963821 -346.416631,2077.423913 -348.031453,2036.743581 -345.008759,1993.691223 -329.721002,1977.669173 -321.451201,1957.734908 -294.183784,1940.353982 -272.882192,1924.169568 -262.875207,1912.368203 -227.686084,1906.125656 -212.722849,1913.387078 -193.528384,1922.167791 -27.142987,2059.625096 -14.903130,2077.833283 -0.821902,2098.775965 14.554705,2121.651605 8.314561,2129.673552 11.248572,2132.308755 17.568181,2126.610701 34.487815,2140.799769 94.927711,2189.330977 133.901958,2213.014061 172.693952,2227.388108 213.555260,2228.336846 347.738737,2227.465158 435.453431,2222.550982 532.151815,2221.302156 534.555907,2222.924338 550.311420,2228.392363 565.403582,2232.960972 575.452994,2243.891943 584.043718,2247.285297 589.720574,2250.457182 596.270750,2252.744221 601.785941,2254.595212 605.143173,2255.942981 608.245818,2256.783885 656.752712,2257.298323 712.258759,2254.172421 762.082075,2247.563634 824.425271,2235.939147 866.461729,2221.794141 881.327638,2219.269413 906.938872,2223.635084 927.890967,2227.523743 940.755276,2229.755613 954.219045,2228.192904 972.126785,2224.074058 997.966120,2217.409459 1014.611942,2215.874298 1052.692110,2216.805985 1073.364221,2217.474009 1090.036595,2215.905211 1129.661646,2207.439129 1144.461542,2200.087602 1167.597593,2189.659813 1188.586971,2176.492019 1204.639688,2166.067816 1227.282433,2149.797343 1271.960798,2106.564816 1323.181990,2075.067211 1335.939580,2069.647196 1347.171392,2066.537576 1400.838985,2052.217316 1418.614893,2051.084554 1435.998787,2046.543602 1448.967065,2042.521754 1481.858427,2034.132746 1494.627524,2031.060605 1500.859266,2028.826526 1509.637210,2026.076097 1516.996459,2020.259866 1550.717437,1997.747050 1583.638639,1976.050971 1601.687375,1963.998619 1612.262875,1950.432294 1622.882496,1943.396348 1631.538015,1939.925283 1640.792638,1937.911395 1648.115357,1937.603645 1667.793032,1937.770389 1671.204135,1944.046846 1674.988323,1942.149347 1674.066628,1940.531489 1688.409796,1933.034665 1709.872995,1915.743299 1713.933870,1911.615233 1817.433023,1819.925971 1838.766054,1799.700332 1854.962579,1789.197695 1856.440985,1789.714516 1863.478281,1789.401445 1883.233419,1792.160033 1892.941052,1786.099061 1926.262736,1767.056898 1962.794251,1746.629399 1982.045464,1742.599827 2022.153611,1725.019348 2041.202804,1714.340308 2065.735084,1699.217064 2080.638652,1690.030614 2083.903502,1688.332533 2108.770000,1675.383884 2124.779399,1661.447700 2157.561012,1629.722310 2171.387111,1627.455107 2177.443801,1632.379515 2180.026869,1634.488630 2202.934080,1642.072710 2224.110076,1649.078037 2250.102863,1657.682609 2265.627214,1662.815625 2342.534034,1683.822010 2356.947455,1687.752620 2392.485316,1689.600064 2414.534866,1690.748194 2423.881503,1691.738165 2445.715225,1694.047692 2470.882028,1696.093494 2500.477589,1697.576579 2529.936597,1698.316978 2548.747219,1695.755592 2586.755048,1690.581170 2587.650718,1689.418102 2605.907498,1687.045503 2641.906227,1673.464872 2651.950191,1669.657682 2656.756288,1667.841650 2660.968391,1665.536240 2674.564531,1660.827037 2680.778489,1656.536454 2688.575107,1649.667844 2699.828715,1639.751643 2702.492355,1635.027926 2696.407305,1619.288632 2700.864058,1606.964906 2705.000484,1601.033791 2706.579536,1598.622727 2712.357837,1591.080457 2715.263275,1590.847188 2736.451616,1568.136049 2695.368321,1544.283542 2653.025009,1528.911354 2637.739455,1552.400628 2503.090510,1525.035056 2488.893873,1501.105836 2469.986160,1501.822307 2462.477682,1505.614898 2455.685538,1511.674744 2451.065200,1513.253775 2440.112871,1509.012091 2422.644494,1512.115714 2407.242198,1518.028329 2387.108832,1520.782373 2374.114495,1522.120723 2363.055889,1521.219143 2352.865767,1515.594562 2342.591752,1505.576694 2335.070692,1493.392279 2327.318716,1485.851974 2299.774931,1471.546521 2263.409089,1454.561419 2194.239639,1425.586383 2155.165548,1423.807953 2118.497919,1440.486933 2073.983420,1476.642922 2010.188501,1529.869366 1980.009046,1558.296970 1955.825750,1583.138392 1928.404150,1593.321830 1885.377177,1614.730887 1818.643373,1645.707910 1774.193646,1674.054777 1745.584376,1709.073944 1728.286395,1717.806755 1682.031360,1743.073794 1619.247838,1790.522645 1555.494522,1840.505578 1490.404044,1886.298232 1462.843313,1906.767848 1431.718851,1918.338431 1388.346801,1930.768502 1339.302373,1949.750626 1272.813313,1964.486002 1226.597739,1993.673225 1130.094047,2063.543528 1078.519831,2091.500673 1070.585037,2093.189679 1018.304586,2095.525789 992.432145,2097.005971 913.229016,2102.401574 879.002204,2103.910795 862.343838,2107.972356"/>
    <poly id="105014661" type="landuse.railway" color="194,194,130" fill="1" layer="-3.00" shape="1766.232769,3048.630749 1766.064303,3046.230679 1765.747372,3041.763948 1765.364071,3036.319368 1765.072866,3032.130303 1764.746147,3027.507991 1764.561313,3024.963592 1493.406224,3042.543484 1279.275528,3057.189563 1152.689382,3064.131495 1076.519108,3069.499665 1059.560314,3070.517823 1042.008326,3069.333358 717.913666,3092.754942 665.390225,3089.736893 661.489984,3081.056167 627.117828,3082.080617 626.485141,3090.437799 495.527371,3100.408021 453.816153,3096.970257 306.347709,3106.866722 304.593870,3096.753559 102.185722,3110.432389 67.809996,3096.328737 18.706827,3097.934954 -47.055889,3103.684352 -145.700860,3136.171025 -198.423381,3140.008947 -241.964730,3141.697829 -241.652766,3146.164585 -241.277280,3151.097409 -320.503869,3157.181532 -317.520532,3170.652839 -414.889225,3189.089336 -399.631398,3219.465323 -365.247720,3214.572504 -272.964944,3199.864093 -196.833011,3189.201652 -118.722253,3183.775599 27.811836,3179.748250 151.515905,3184.427376 320.685323,3193.062289 631.173358,3173.528345 754.058087,3160.580821 811.325328,3149.621842 867.770579,3136.220534 962.040480,3116.523397 1042.370804,3108.057590 1173.565928,3098.753844 1198.931191,3097.328765 1271.663612,3090.994136 1363.064709,3078.202960 1439.415121,3070.899764 1509.547700,3065.063872 1576.191653,3061.243288 1616.750387,3058.882500 1723.333922,3052.659747 1755.290784,3050.799287 1766.232769,3048.630749"/>
    <poly id="108804673" type="landuse.forest" color="140,196,107" fill="1" layer="-3.00" shape="637.763006,1964.117493 632.548547,1900.119216 658.005913,1898.567350 654.793401,1812.332834 682.503861,1811.249138 680.138374,1744.091199 737.463455,1743.311484 796.554330,1753.646888 831.513637,1791.521763 873.861631,1845.131051 892.065846,1842.908832 892.412973,1865.722472 891.605530,1914.193864 890.626630,1947.859264 891.343064,1965.525322 892.574776,1984.872612 847.985714,1987.395176 842.596814,1954.565372 792.669197,1957.358891 742.486173,1959.601554 637.763006,1964.117493"/>
    <poly id="108804676" type="building.yes" color="255,230,230" fill="1" layer="-1.00" shape="1427.976191,2112.444329 1414.759567,2089.122266 1422.950239,2084.480382 1436.166620,2107.791345 1427.976191,2112.444329"/>
    <poly id="108804679" type="building.yes" color="255,230,230" fill="1" layer="-1.00" shape="1408.647279,2145.840278 1385.279669,2108.349836 1405.452045,2095.777332 1428.819554,2133.267869 1408.647279,2145.840278"/>
    <poly id="108804680" type="building.yes" color="255,230,230" fill="1" layer="-1.00" shape="1382.151106,2094.179479 1373.453950,2080.316822 1399.696776,2063.844209 1409.305417,2079.146896 1398.947921,2085.644200 1398.043181,2084.204086 1382.151106,2094.179479"/>
    <poly id="108804687" type="building.yes" color="255,230,230" fill="1" layer="-1.00" shape="1436.540030,2076.029324 1454.504094,2105.824526 1441.432839,2113.664713 1454.551089,2135.419913 1524.793166,2093.277034 1515.481355,2077.834897 1501.764834,2086.065647 1489.131221,2065.113216 1464.252073,2080.045866 1451.779729,2059.357452 1440.905879,2065.875743 1444.241670,2071.408031 1436.540030,2076.029324"/>
    <poly id="108804688" type="building.yes" color="255,230,230" fill="1" layer="-1.00" shape="807.229931,2069.386886 806.624310,2053.243005 790.528205,2054.056092 790.908977,2062.115392 792.349016,2062.054062 792.402554,2064.812388 791.118600,2064.859562 791.113334,2066.339485 788.496347,2066.356901 788.464940,2065.089093 780.255862,2065.604488 780.801694,2081.115321 796.924357,2080.624351 796.690941,2072.450926 794.883506,2072.497132 794.725988,2069.985607 796.771057,2069.923662 796.712573,2068.311458 799.158803,2068.252855 799.132500,2069.699806 807.229931,2069.386886"/>
    <poly id="111367520" type="landuse.forest" color="140,196,107" fill="1" layer="-3.00" shape="2742.703414,3221.413979 2713.677369,3240.803053 2730.328403,3251.145339 2712.742258,3285.960489 2721.897027,3330.258384 2669.364200,3343.274544 2666.764303,3362.717290 2666.002456,3368.395112 2647.898951,3368.851028 2620.457240,3370.731004 2608.890620,3393.960640 2616.069374,3418.680216 2643.290526,3491.963029 2652.860838,3524.158541 2647.927050,3558.432690 2604.992914,3556.824832 2592.443813,3552.713491 2564.670130,3558.872664 2562.374156,3542.883313 2506.501697,3524.610812 2467.626429,3539.137884 2480.849087,3611.329522 2506.623709,3610.837932 2510.366610,3628.924811 2518.713265,3628.988180 2569.226942,3628.236665 2574.782249,3610.206206 2641.410181,3608.069134 2631.827581,3630.893788 2643.630553,3637.233579 2609.735683,3684.142597 2604.295320,3704.640883 2587.228428,3710.929787 2589.434499,3764.650410 2591.254910,3809.187996 2613.139398,3859.251435 2570.972168,3870.291165 2582.121606,3885.867021 2591.840033,3905.876214 2599.980800,3922.622075 2601.007804,3961.544840 2590.157312,4006.579779 2739.797632,3947.898470 2762.536279,3983.315095 2751.778166,4022.206121 2751.756510,4059.290732 2735.200888,4089.179596 2731.447014,4103.314757 2714.915061,4124.791710 2688.822621,4138.072546 2692.676634,4147.412097 2697.300006,4163.257065 2697.324929,4169.921291 2697.378514,4184.874124 2794.439225,4181.570012 2812.843203,4326.819800 2826.590665,4354.407763 2722.955106,4408.372482 2693.060280,4425.286153 2679.946523,4429.941866 2698.948105,4597.154594 2700.442396,4610.333168 2659.819495,4621.854752 2610.058786,4590.981217 2597.229145,4594.830653 2614.497268,4619.235564 2665.017987,4649.360321 2685.843157,4812.788725 2711.208525,4836.817247 2785.869982,4872.847980 2811.239247,4867.825936 2865.440773,4826.562570 2897.379114,4818.968341 2954.108584,4838.140931 3018.169628,4881.719824 3064.809273,4948.939616 3123.410444,4992.423091 3214.518770,5023.297408 3252.795137,5022.528310 3364.903331,5067.127299 3374.951910,5089.790871 3400.341005,5096.999334 3427.944083,5090.502948 3470.728234,5095.703110 3607.716640,5171.202929 3836.313099,5320.029573 3891.129707,5366.986618 3926.489116,5407.444905 3934.338575,5434.723779 3958.639203,5426.445424 4024.310541,5404.717548 4029.340717,5403.432610 4149.555354,5371.826388 4265.184849,5363.028891 4341.127570,5356.789969 4397.482220,5305.712301 4656.869174,5147.394210 4202.130938,2838.144836 4194.899616,2809.496597 4009.174594,2845.154261 4015.021425,2876.031230 3975.632637,2885.048195 3969.545177,2852.951892 3939.625950,2858.431299 3795.943935,2884.740778 3489.217177,2931.462504 3502.110883,3060.818440 3527.937352,3066.895840 3531.984877,3095.914789 3487.526703,3218.319400 3480.653462,3238.743473 3147.132782,3125.773849 3103.022033,3109.953233 2959.586504,3058.064695 2909.681163,3039.607525 2875.546426,3037.385072 2870.219722,3037.130193 2803.544133,3033.946434 2753.826502,3032.199039 2748.648359,3032.609047 2743.712409,3033.960195 2740.138049,3035.786138 2740.004973,3038.080698 2737.896359,3038.710499 2733.143474,3030.389374 2728.603695,3028.984792 2726.119536,3028.809517 2724.693737,3029.604357 2724.474010,3032.345620 2746.425601,3138.741114 2866.281464,3106.755785 2866.693047,3090.136331 2873.082023,3089.425290 2940.277977,3083.543252 3000.362852,3141.350645 3005.191942,3210.698539 2906.944517,3238.420508 2913.161966,3260.187991 2864.465782,3297.061968 2780.050232,3313.642257 2785.491022,3344.937396 2765.663692,3348.385259 2760.222778,3317.090140 2742.703414,3221.413979"/>
    <poly id="111367532" type="landuse.grass" color="194,194,130" fill="1" layer="-3.00" shape="4656.869174,5147.394210 4678.937790,5139.149985 4226.274807,2833.120037 4202.130938,2838.144836 4656.869174,5147.394210"/>
    <poly id="112178169" type="natural.water" color="181,209,209" fill="1" layer="-4.00" shape="862.343838,2107.972356 850.545815,2053.837279 849.555365,2050.440666 820.077868,2053.582766 822.350424,2083.813793 846.139880,2083.240988 852.839543,2087.272327 855.235176,2099.676375 857.471156,2109.457675 859.944765,2108.708729 862.343838,2107.972356"/>
    <poly id="122898411" type="building.yes" color="255,230,230" fill="1" layer="-1.00" shape="1749.567236,2889.509426 1760.917641,2893.719602 1766.448089,2879.449393 1759.707369,2877.075485 1754.444953,2875.229495 1749.567236,2889.509426"/>
    <poly id="124816702" type="amenity.school" color="237,199,199" fill="1" layer="-1.00" shape="2258.370323,1988.200202 2282.273086,1980.021768 2324.677263,1971.656994 2318.905283,1912.552718 2319.169758,1870.156226 2284.660398,1867.633246 2284.617755,1892.801897 2208.502790,1902.390007 2212.466506,1969.606511 2213.919291,1993.322411 2258.370323,1988.200202"/>
    <poly id="124816871" type="amenity.school" color="237,199,199" fill="1" layer="-1.00" shape="2322.535722,2271.008274 2289.891584,2336.075806 2296.451494,2362.408988 2287.611512,2362.967308 2286.812660,2378.437104 2226.361725,2382.407494 2227.848457,2296.260911 2322.535722,2271.008274"/>
    <poly id="124816921" type="building.school" color="255,230,230" fill="1" layer="-1.00" shape="2299.876001,2506.074060 2297.343632,2479.908703 2314.244921,2478.261784 2320.290426,2477.678998 2320.434410,2479.167181 2322.822885,2503.855488 2299.876001,2506.074060"/>
    <poly id="124816922" type="leisure.pitch" color="207,245,201" fill="1" layer="-2.00" shape="2119.361380,2235.505549 2119.001377,2229.837984 2217.551913,2223.491003 2217.918597,2229.158443 2119.361380,2235.505549"/>
    <poly id="124816922#1" type="sport.athletics" color="79,230,125" fill="1" layer="-2.00" shape="2119.361380,2235.505549 2119.001377,2229.837984 2217.551913,2223.491003 2217.918597,2229.158443 2119.361380,2235.505549"/>
    <poly id="124816923" type="amenity.school" color="237,199,199" fill="1" layer="-1.00" shape="2354.195150,2460.864887 2373.638316,2459.191894 2376.296412,2486.979327 2378.878894,2514.011613 2379.533110,2520.864095 2357.484719,2522.787089 2306.422648,2526.388139 2307.443779,2541.055447 2274.264870,2543.881303 2272.100465,2511.722930 2295.041581,2509.559969 2292.748285,2468.514083 2324.943059,2465.740543 2324.943467,2463.626525 2354.195150,2460.864887"/>
    <poly id="124816924" type="building.school" color="255,230,230" fill="1" layer="-1.00" shape="2181.955720,2280.593606 2179.167176,2235.740881 2211.907733,2233.701674 2214.695977,2278.554414 2181.955720,2280.593606"/>
    <poly id="124816924#1" type="leisure.sports_centre" color="207,245,201" fill="1" layer="-2.00" shape="2181.955720,2280.593606 2179.167176,2235.740881 2211.907733,2233.701674 2214.695977,2278.554414 2181.955720,2280.593606"/>
    <poly id="124816924#2" type="sport.multi" color="79,230,125" fill="1" layer="-2.00" shape="2181.955720,2280.593606 2179.167176,2235.740881 2211.907733,2233.701674 2214.695977,2278.554414 2181.955720,2280.593606"/>
    <poly id="124816925" type="leisure.pitch" color="207,245,201" fill="1" layer="-2.00" shape="2167.843112,2261.036361 2123.218456,2263.347818 2121.815203,2236.204050 2166.440318,2233.903706 2167.843112,2261.036361"/>
    <poly id="124816925#1" type="sport.soccer" color="79,230,125" fill="1" layer="-2.00" shape="2167.843112,2261.036361 2123.218456,2263.347818 2121.815203,2236.204050 2166.440318,2233.903706 2167.843112,2261.036361"/>
    <poly id="124816926" type="building.school" color="255,230,230" fill="1" layer="-1.00" shape="2329.680422,2510.556103 2277.288120,2514.983958 2277.964583,2522.993149 2330.356800,2518.565299 2330.243186,2517.243431 2329.680422,2510.556103"/>
    <poly id="124816989" type="building.yes" color="255,230,230" fill="1" layer="-1.00" shape="3236.815274,2300.428684 3236.727500,2272.425429 3242.369335,2272.407738 3242.358134,2268.580501 3277.724951,2268.468091 3277.741380,2272.573387 3283.322054,2272.556899 3283.402834,2300.204237 3280.955887,2300.217116 3280.999578,2314.035160 3238.944407,2314.162784 3238.902069,2300.422595 3236.815274,2300.428684"/>
    <poly id="124816989#1" type="leisure.sports_centre" color="207,245,201" fill="1" layer="-2.00" shape="3236.815274,2300.428684 3236.727500,2272.425429 3242.369335,2272.407738 3242.358134,2268.580501 3277.724951,2268.468091 3277.741380,2272.573387 3283.322054,2272.556899 3283.402834,2300.204237 3280.955887,2300.217116 3280.999578,2314.035160 3238.944407,2314.162784 3238.902069,2300.422595 3236.815274,2300.428684"/>
    <poly id="124816990" type="amenity.school" color="237,199,199" fill="1" layer="-1.00" shape="3185.082547,2436.113648 3302.838739,2438.014436 3302.230900,2257.312499 3191.439510,2250.094942 3182.314528,2254.284212 3185.082547,2436.113648"/>
    <poly id="124908664" type="amenity.kindergarten" color="237,199,199" fill="1" layer="-1.00" shape="2696.090472,2268.483078 2709.248886,2268.010255 2706.914730,2240.717229 2694.586528,2241.597064 2696.090472,2268.483078"/>
    <poly id="124908664#1" type="building.yes" color="255,230,230" fill="1" layer="-1.00" shape="2696.090472,2268.483078 2709.248886,2268.010255 2706.914730,2240.717229 2694.586528,2241.597064 2696.090472,2268.483078"/>
    <poly id="124908666" type="building.yes" color="255,230,230" fill="1" layer="-1.00" shape="2696.090472,2268.483078 2709.248886,2268.010255 2710.938091,2289.629989 2698.052158,2290.487048 2696.090472,2268.483078"/>
    <poly id="124908667" type="building.yes" color="255,230,230" fill="1" layer="-1.00" shape="2698.052158,2290.487048 2710.938091,2289.629989 2711.861008,2300.983558 2698.968521,2301.851866 2698.052158,2290.487048"/>
    <poly id="128020886" type="landuse.grass" color="194,194,130" fill="1" layer="-3.00" shape="2659.676805,2252.174858 2661.838878,2254.336730 2664.616835,2255.641280 2666.246861,2255.921800 2674.629204,2255.595403 2677.397986,2254.274318 2679.868502,2251.568116 2680.935570,2248.699470 2681.029602,2246.138621 2680.171666,2243.206463 2678.981529,2241.393261 2676.612821,2239.446714 2672.505496,2238.300967 2664.139466,2238.771698 2661.006243,2240.589285 2659.121640,2243.006188 2658.085509,2247.142654 2658.625344,2250.147620 2659.676805,2252.174858"/>
    <poly id="128020895" type="amenity.parking" color="184,184,179" fill="1" layer="-1.00" shape="2749.914968,2352.108664 2755.948844,2427.063375 2791.925793,2424.054112 2782.110395,2301.038703 2745.287415,2303.574537 2749.426191,2346.065228 2698.053079,2350.569290 2698.611564,2356.700409 2749.914968,2352.108664"/>
    <poly id="128020896" type="amenity.parking" color="184,184,179" fill="1" layer="-1.00" shape="2494.513275,2295.186506 2538.525775,2291.087614 2535.210108,2255.501956 2491.203874,2259.589623 2494.513275,2295.186506"/>
    <poly id="136813942" type="man_made.pier" color="255,230,230" fill="0" layer="-1.00" shape="3059.929725,1602.864128 3045.226723,1620.944789 3047.666531,1622.689896 3018.872097,1660.252798"/>
    <poly id="136813943" type="man_made.pier" color="255,230,230" fill="0" layer="-1.00" shape="3230.265599,1793.793960 3227.468461,1805.140052"/>
    <poly id="136813944" type="man_made.pier" color="255,230,230" fill="0" layer="-1.00" shape="3041.291066,1594.794656 3002.315796,1645.824265"/>
    <poly id="136813945" type="man_made.pier" color="255,230,230" fill="0" layer="-1.00" shape="3186.846868,1773.831331 3181.557636,1782.454154"/>
    <poly id="136813946" type="man_made.pier" color="255,230,230" fill="0" layer="-1.00" shape="3286.046358,1804.555509 3283.197330,1817.838522"/>
    <poly id="136813947" type="man_made.pier" color="255,230,230" fill="0" layer="-1.00" shape="3091.824294,1652.495257 3057.520442,1693.878463"/>
    <poly id="136813948" type="man_made.pier" color="255,230,230" fill="0" layer="-1.00" shape="3086.227374,1681.485150 3067.789576,1704.098139"/>
    <poly id="136813949" type="man_made.pier" color="255,230,230" fill="0" layer="-1.00" shape="3260.782530,1798.757833 3256.691723,1812.520517"/>
    <poly id="136813950" type="man_made.pier" color="255,230,230" fill="0" layer="-1.00" shape="3276.656576,1802.696874 3273.717047,1815.147132"/>
    <poly id="136813951" type="man_made.pier" color="255,230,230" fill="0" layer="-1.00" shape="3170.866099,1748.454211 3158.545001,1768.814863"/>
    <poly id="136813952" type="man_made.pier" color="255,230,230" fill="0" layer="-1.00" shape="3100.070654,1699.503496 3086.394076,1718.643856"/>
    <poly id="136813953" type="man_made.pier" color="255,230,230" fill="0" layer="-1.00" shape="3253.894655,1790.432069 3245.700874,1809.401561"/>
    <poly id="136813954" type="building.yes" color="255,230,230" fill="1" layer="-1.00" shape="2787.191589,2067.266829 2787.545602,2071.944288 2801.927861,2070.380345 2801.853209,2069.313635 2804.391190,2069.076266 2805.149200,2068.182883 2805.738374,2074.146530 2815.623780,2073.124246 2812.650128,2038.978396 2801.222876,2040.074484 2803.868046,2065.514653 2787.191589,2067.266829"/>
    <poly id="136813955" type="building.yes" color="255,230,230" fill="1" layer="-1.00" shape="2887.985965,1757.409170 2900.997083,1756.984203 2900.854046,1745.148513 2887.511405,1745.301614 2887.985965,1757.409170"/>
    <poly id="136813957" type="building.yes" color="255,230,230" fill="1" layer="-1.00" shape="3664.739572,2088.086618 3666.073571,2074.086906 3677.889949,2075.244142 3677.397830,2079.436883 3679.067154,2079.639115 3678.430475,2085.180857 3676.877935,2085.043185 3676.501344,2089.233752 3664.739572,2088.086618"/>
    <poly id="136813959" type="building.yes" color="255,230,230" fill="1" layer="-1.00" shape="2837.282244,2099.238008 2836.996586,2095.293587 2836.507091,2095.291757 2836.264881,2092.203238 2836.692794,2092.183984 2836.345165,2087.840191 2843.487403,2087.348498 2849.778426,2087.496055 2850.424859,2095.761769 2851.103502,2096.416461 2851.769472,2096.403814 2851.862379,2099.506295 2837.282244,2099.238008"/>
    <poly id="136813960" type="building.yes" color="255,230,230" fill="1" layer="-1.00" shape="3724.799824,2062.778981 3720.281028,2062.519078 3720.303916,2061.928956 3717.126373,2061.777337 3717.302800,2058.146854 3716.044348,2058.103773 3716.120514,2054.564186 3717.582835,2054.603431 3730.170493,2055.201096 3729.926938,2058.877347 3728.045170,2058.946124 3727.830363,2062.343678 3724.925484,2062.231430 3724.799824,2062.778981"/>
    <poly id="136813961" type="building.yes" color="255,230,230" fill="1" layer="-1.00" shape="2730.890136,1744.427214 2726.961435,1733.030664 2731.709500,1731.382702 2731.536666,1730.874177 2736.386043,1729.190915 2736.565673,1729.699311 2741.178668,1728.098432 2745.096285,1739.628720 2730.890136,1744.427214"/>
    <poly id="136813962" type="building.yes" color="255,230,230" fill="1" layer="-1.00" shape="3720.673451,2119.511581 3722.908579,2104.983126 3734.301037,2106.738162 3732.065668,2121.255489 3720.673451,2119.511581"/>
    <poly id="136813963" type="building.yes" color="255,230,230" fill="1" layer="-1.00" shape="2671.440956,2086.246363 2671.936095,2090.832121 2673.313278,2090.683528 2674.904780,2105.729440 2688.032478,2104.333672 2684.908035,2079.102938 2682.567703,2061.857128 2678.957701,2062.203966 2678.448015,2056.138681 2670.399353,2056.870387 2670.876129,2062.991929 2669.892239,2063.088534 2672.053460,2079.136102 2672.811346,2086.097899 2671.440956,2086.246363"/>
    <poly id="136813964" type="building.yes" color="255,230,230" fill="1" layer="-1.00" shape="2717.326472,1800.172139 2717.465425,1802.116605 2710.404542,1802.618048 2709.142002,1788.422604 2714.340578,1787.945447 2724.457164,1787.252391 2744.698225,1785.565781 2744.958018,1792.436916 2745.060113,1798.165035 2717.326472,1800.172139"/>
    <poly id="136813965" type="building.yes" color="255,230,230" fill="1" layer="-1.00" shape="3795.559520,1975.920740 3799.394158,1961.840695 3826.987168,1969.032617 3828.293460,1964.746713 3834.401698,1966.378762 3833.101570,1970.631170 3861.468456,1978.131404 3857.540925,1991.979490 3795.559520,1975.920740"/>