<?xml version="1.0" encoding="UTF-8"?>
<!-- generated on 2019-09-18 15:07:39.910107 by $Id$
  options: -n osm.net.xml -e 3600 -p 600 <doubleminus>random-begin <doubleminus>seed 42 <doubleminus>ptstops osm_stops.add.xml <doubleminus>ptlines osm_ptlines.xml -o osm_pt.rou.xml <doubleminus>ignore-errors <doubleminus>vtype-prefix pt_ <doubleminus>stopinfos-file stopinfos.xml <doubleminus>routes-file vehroutes.xml <doubleminus>trips-file trips.trips.xml <doubleminus>verbose
-->
<routes xmlns:xsi="http://www.w3.org/2001/XMLSchema-instance" xsi:noNamespaceSchemaLocation="http://sumo.dlr.de/xsd/routes_file.xsd">
    <vType id="pt_bus" vClass="bus"/>
    <vType id="pt_tram" vClass="tram"/>
    <vType id="pt_train" vClass="rail"/>
    <vType id="pt_subway" vClass="rail_urban"/>
    <vType id="pt_light_rail" vClass="rail_urban"/>
    <vType id="pt_monorail" vClass="rail"/>
    <vType id="pt_trolleybus" vClass="bus"/>
    <vType id="pt_aerialway" vClass="bus"/>
    <vType id="pt_ferry" vClass="ship"/>
    <route id="pt_tram_60:0" edges="385907618#0 385907618#1 -117702504 -288073825 -288073821 -288073818 288073800 25307907#0 25307907#1 93704163 30689379#0 30689379#1 107704595 107704578 177943463 25000120 180203313 173640272#0 173640272#1 144077985 173640268#0 173640268#1 173640266" >
        <stop busStop="349055255" duration="30.00" until="32.0"/> <!-- Altes Wasserwerk -->
        <stop busStop="-1883472920" duration="30.00" until="109.0"/> <!-- Bruno-Wille-Straße -->
        <stop busStop="-3890748374" duration="30.00" until="166.0"/> <!-- Josef-Nawrocki-Straße -->
        <stop busStop="3890748385" duration="30.00" until="232.0"/> <!-- Müggelseedamm/Bölschestraße -->
        <stop busStop="3890748380" duration="30.00" until="299.0"/> <!-- Marktplatz Friedrichshagen -->
        <stop busStop="3890748371" duration="30.00" until="368.0"/> <!-- Drachholzstraße -->
        <stop busStop="1883458398" duration="30.00" until="422.0"/> <!-- S Friedrichshagen -->
        <stop busStop="3890748363" duration="30.00" until="500.0"/> <!-- Ahornallee -->
        <stop busStop="1844135106" duration="30.00" until="572.0"/> <!-- Mühlweg -->
        <stop busStop="1844135182" duration="30.00" until="636.0"/> <!-- Westendsiedlung -->
        <stop busStop="1906474291" duration="30.00" until="717.0"/> <!-- Hirschgarten -->
    </route>
    <route id="pt_tram_60:1" edges="144077983 173640267#0 173640267#1 93704177#0 93704177#1 93704167#0 93704167#1 173640262 25000118 177946329 179081032#0 179081032#1 180202673#0 180202673#1 180202673#2 288073818 288073812 288073825 117702504 171257586" >
        <stop busStop="349047807" duration="30.00" until="43.0"/> <!-- Hirschgarten -->
        <stop busStop="349047810" duration="30.00" until="122.0"/> <!-- Westendsiedlung -->
        <stop busStop="349047813" duration="30.00" until="186.0"/> <!-- Mühlweg -->
        <stop busStop="349058473" duration="30.00" until="259.0"/> <!-- Ahornallee -->
        <stop busStop="3890748391" duration="30.00" until="334.0"/> <!-- S Friedrichshagen -->
        <stop busStop="3890748370" duration="30.00" until="395.0"/> <!-- Drachholzstraße -->
        <stop busStop="3890748378" duration="30.00" until="459.0"/> <!-- Marktplatz Friedrichshagen -->
        <stop busStop="3890748382" duration="30.00" until="526.0"/> <!-- Müggelseedamm/Bölschestraße -->
        <stop busStop="1883465386" duration="30.00" until="588.0"/> <!-- Josef-Nawrocki-Straße -->
        <stop busStop="1883484180" duration="30.00" until="650.0"/> <!-- Bruno-Wille-Straße -->
        <stop busStop="1883472919" duration="30.00" until="734.0"/> <!-- Altes Wasserwerk -->
    </route>
    <route id="pt_tram_61:0" edges="144077983 144077982#0 144077982#1 144077982#2 144077982#3 144077982#4 144077982#5 25307900#0 25307900#1 25307900#2 93704163 30689379#0 30689379#1 107704595 107704578 181676539 25000105#0 25000105#1 25000105#2 143742581#0 143742581#1 143742581#2 143742581#3 143742581#4 143742581#5 143742581#6 143742581#7 143742582#0 143742582#1 143742582#2 143742579" >
        <stop busStop="349047807" duration="30.00" until="43.0"/> <!-- Hirschgarten -->
        <stop busStop="349050439" duration="30.00" until="129.0"/> <!-- Wassersportzentrum -->
        <stop busStop="271779546" duration="30.00" until="206.0"/> <!-- Spreestraße -->
        <stop busStop="3890748385" duration="30.00" until="296.0"/> <!-- Müggelseedamm/Bölschestraße -->
        <stop busStop="3890748380" duration="30.00" until="363.0"/> <!-- Marktplatz Friedrichshagen -->
        <stop busStop="3890748371" duration="30.00" until="432.0"/> <!-- Drachholzstraße -->
        <stop busStop="1883458398" duration="30.00" until="486.0"/> <!-- S Friedrichshagen -->
        <stop busStop="349055083" duration="30.00" until="564.0"/> <!-- Hartlebenstraße -->
        <stop busStop="598350419" duration="30.00" until="652.0"/> <!-- Wasserwerk Friedrichshagen -->
        <stop busStop="254100382" duration="30.00" until="750.0"/> <!-- Fürstenwalder Damm -->
        <stop busStop="253943504" duration="30.00" until="843.0"/> <!-- Fürstenwalder Damm/Müggelseedamm -->
        <stop busStop="253943512" duration="30.00" until="941.0"/> <!-- Licht- und Luftbad Müggelsee -->
        <stop busStop="253943514" duration="30.00" until="1016.0"/> <!-- Strandbad Müggelsee -->
    </route>
    <route id="pt_tram_61:1" edges="171257542 171257621#0 171257621#1 171257621#2 171257556#0 171257556#1 171257556#2 171257556#3 171257556#4 171257556#5 171257556#6 171257556#7 171257624#0 171257624#1 171257624#2 179081032#0 179081032#1 181676059#0 181676059#1 144077980#0 144077980#1 144077980#2 144077980#3 144077980#4 144077980#5 173640266" >
        <stop busStop="1823189305" duration="30.00" until="78.0"/> <!-- Strandbad Müggelsee -->
        <stop busStop="1823188151" duration="30.00" until="153.0"/> <!-- Licht- und Luftbad Müggelsee -->
        <stop busStop="1823188120" duration="30.00" until="234.0"/> <!-- Fürstenwalder Damm/Müggelseedamm -->
        <stop busStop="1823188105" duration="30.00" until="330.0"/> <!-- Fürstenwalder Damm -->
        <stop busStop="1823189338" duration="30.00" until="447.0"/> <!-- Wasserwerk Friedrichshagen -->
        <stop busStop="1823188126" duration="30.00" until="530.0"/> <!-- Hartlebenstraße -->
        <stop busStop="3890748391" duration="30.00" until="611.0"/> <!-- S Friedrichshagen -->
        <stop busStop="3890748370" duration="30.00" until="672.0"/> <!-- Drachholzstraße -->
        <stop busStop="3890748378" duration="30.00" until="736.0"/> <!-- Marktplatz Friedrichshagen -->
        <stop busStop="3890748382" duration="30.00" until="803.0"/> <!-- Müggelseedamm/Bölschestraße -->
        <stop busStop="1883502289" duration="30.00" until="894.0"/> <!-- Spreestraße -->
        <stop busStop="1844135181" duration="30.00" until="969.0"/> <!-- Wassersportzentrum -->
        <stop busStop="1906474291" duration="30.00" until="1055.0"/> <!-- Hirschgarten -->
    </route>
    <route id="pt_tram_88:0" edges="-298357088#0 -171091369#16 -171091369#15 -171091369#14 -171091369#13 -171091369#12 -171091369#11 -171091369#10 -171091369#9 -171091369#8 -171091369#7 -171091369#6 -171091369#5 -171091369#4 -171091369#3 -171091369#2 -171091369#1 -171091369#0 -298357088#17 -298357088#16 -298357088#15 -298357088#14 -298357088#13 -298357088#12 -298357088#11 -298357088#10 -298357088#9 -298357088#8 -298357088#7 -298357088#6 -298357088#5 -298357088#4 -298357088#3 -298357088#2 -298357088#1 -298357088#0 -171091369#16 -171091369#15 -171091369#14 -171091369#13 -171091369#12 -171091369#11 -171091369#10 551252076 298357088#7 298357088#8 298357088#9 298357088#10 298357088#11 298357088#12 298357088#13 298357088#14 298357088#15 298357088#16 298357088#17 171091369#0" >
        <stop busStop="-3022831712" duration="30.00" until="191.0"/> <!-- Rahnsdorfer Straße -->
        <stop busStop="-3986514165" duration="30.00" until="278.0"/> <!-- Goethepark -->
        <stop busStop="-253943361" duration="30.00" until="1007.0"/> <!-- Waldstraße -->
        <stop busStop="253943345" duration="30.00" until="1477.0"/> <!-- Brösener Straße -->
        <stop busStop="253943340" duration="30.00" until="1579.0"/> <!-- S Friedrichshagen -->
    </route>
    <flow id="pt_tram_60:0" type="pt_tram" route="pt_tram_60:0" begin="17.0" end="3617.0" period="1200" line="60:0" >
        <param key="name" value="Straßenbahnlinie 60: Friedrichshagen, Altes Wasserwerk =&gt; Johannisthal, Haeckelstraße"/>
        <param key="completeness" value="0.32"/>
    </flow>
    <flow id="pt_tram_60:1" type="pt_tram" route="pt_tram_60:1" begin="52.0" end="3652.0" period="1200" line="60:1" >
        <param key="name" value="Straßenbahnlinie 60: Johannisthal, Haeckelstraße =&gt; Friedrichshagen, Altes Wasserwerk"/>
        <param key="completeness" value="0.33"/>
    </flow>
    <flow id="pt_tram_61:0" type="pt_tram" route="pt_tram_61:0" begin="131.0" end="3731.0" period="1200" line="61:0" >
        <param key="name" value="Straßenbahnlinie 61: Adlershof, Karl-Ziegler-Straße =&gt; Rahnsdorf/Waldschänke"/>
        <param key="completeness" value="0.43"/>
    </flow>
    <flow id="pt_tram_61:1" type="pt_tram" route="pt_tram_61:1" begin="133.0" end="3733.0" period="1200" line="61:1" >
        <param key="name" value="Straßenbahnlinie 61: Rahnsdorf/Waldschänke =&gt; Adlershof, Karl-Ziegler-Straße"/>
        <param key="completeness" value="0.45"/>
    </flow>
    <flow id="pt_tram_88:0" type="pt_tram" route="pt_tram_88:0" begin="15.0" end="3615.0" period="1200" line="88:0" >
        <param key="name" value="Straßenbahnlinie 88"/>
        <param key="completeness" value="0.25"/>
    </flow>
</routes>
