<?xml version="1.0" encoding="UTF-8"?>

<!-- generated on 09/24/19 15:37:07 by Eclipse SUMO GUI Version 1.3.1
-->

<configuration xmlns:xsi="http://www.w3.org/2001/XMLSchema-instance" xsi:noNamespaceSchemaLocation="http://sumo.dlr.de/xsd/sumoConfiguration.xsd">

    <input>
        <net-file value="Sumo_MATSim.net.xml"/>
        <additional-files value="MATStoSUMO.xml"/>
    </input>

</configuration>
