<?xml version="1.0" encoding="UTF-8"?>

<!-- generated on Wed Sep 25 09:47:40 2019 by Eclipse SUMO netconvert Version v1_3_1+0443-48309f7
<configuration xmlns:xsi="http://www.w3.org/2001/XMLSchema-instance" xsi:noNamespaceSchemaLocation="http://sumo.dlr.de/xsd/netconvertConfiguration.xsd">

    <input>
        <sumo-net-file value="Sumo_MATSim.net.xml"/>
    </input>

    <output>
        <plain-output-prefix value="plain"/>
    </output>

    <processing>
        <geometry.max-grade.fix value="false"/>
        <offset.disable-normalization value="true"/>
        <lefthand value="false"/>
    </processing>

    <junctions>
        <no-turnarounds value="true"/>
        <junctions.corner-detail value="5"/>
        <junctions.limit-turn-speed value="5.5"/>
        <rectangular-lane-cut value="false"/>
    </junctions>

    <pedestrian>
        <walkingareas value="false"/>
    </pedestrian>

</configuration>
-->

<nodes version="1.3" xmlns:xsi="http://www.w3.org/2001/XMLSchema-instance" xsi:noNamespaceSchemaLocation="http://sumo.dlr.de/xsd/nodes_file.xsd">
    <location netOffset="-4451428.50,-5576351.50" convBoundary="0.00,0.00,256473.50,443095.50" origBoundary="4451428.50,5576351.50,4707902.00,6019447.00" projParameter="!"/>

    <node id="1000" x="128966.50" y="244897.50" type="priority"/>
    <node id="1000111" x="139872.00" y="244604.00" type="priority"/>
    <node id="1000112" x="140468.50" y="244813.50" type="priority"/>
    <node id="1000113" x="141315.00" y="244788.00" type="priority"/>
    <node id="1000114" x="141376.50" y="245007.00" type="priority"/>
    <node id="1000115" x="142083.00" y="245057.50" type="priority"/>
    <node id="1000116" x="141912.00" y="245316.50" type="priority"/>
    <node id="1000117" x="141712.50" y="245320.50" type="priority"/>
    <node id="1000125" x="141024.50" y="244151.00" type="priority"/>
    <node id="1000131" x="140432.50" y="244055.00" type="priority"/>
    <node id="1000132" x="140912.50" y="243811.50" type="priority"/>
    <node id="1000133" x="142268.00" y="245993.50" type="priority"/>
    <node id="1000134" x="142217.50" y="246329.00" type="priority"/>
    <node id="1000138" x="142584.00" y="245674.00" type="priority"/>
    <node id="1000142" x="142438.00" y="246442.00" type="priority"/>
    <node id="1000144" x="142999.50" y="245957.00" type="priority"/>
    <node id="1000145" x="142999.50" y="245704.00" type="priority"/>
    <node id="1000146" x="143156.50" y="245349.50" type="priority"/>
    <node id="1000147" x="143371.00" y="245035.50" type="priority"/>
    <node id="1000151" x="142589.00" y="245124.00" type="priority"/>
    <node id="1000152" x="142571.00" y="244940.00" type="priority"/>
    <node id="1000156" x="142611.50" y="244791.50" type="priority"/>
    <node id="1000157" x="142641.50" y="244697.50" type="priority"/>
    <node id="1000158" x="142703.00" y="244397.50" type="priority"/>
    <node id="1000159" x="142383.50" y="244308.50" type="priority"/>
    <node id="1000164" x="142691.00" y="244074.50" type="priority"/>
    <node id="1000165" x="142330.50" y="244159.00" type="priority"/>
    <node id="1000166" x="142211.50" y="243988.50" type="priority"/>
    <node id="1000172" x="142817.50" y="244304.50" type="priority"/>
    <node id="1000173" x="142950.50" y="244094.00" type="priority"/>
    <node id="1000175" x="141990.50" y="244861.50" type="priority"/>
    <node id="1000177" x="143761.00" y="245416.50" type="priority"/>
    <node id="1000179" x="143077.50" y="244997.50" type="priority"/>
    <node id="1000180" x="143190.00" y="244762.00" type="priority"/>
    <node id="1000186" x="143856.50" y="244451.50" type="priority"/>
    <node id="1000188" x="143600.50" y="244212.00" type="priority"/>
    <node id="1000189" x="143375.50" y="243987.00" type="priority"/>
    <node id="1000190" x="143345.50" y="243873.50" type="priority"/>
    <node id="1000191" x="142871.50" y="243552.00" type="priority"/>
    <node id="1000192" x="143965.00" y="244195.00" type="priority"/>
    <node id="1000193" x="143903.00" y="244083.50" type="priority"/>
    <node id="1000201" x="143174.00" y="244266.00" type="priority"/>
    <node id="1000203" x="143800.50" y="245170.50" type="priority"/>
    <node id="1000204" x="143762.00" y="244893.50" type="priority"/>
    <node id="1000205" x="143978.00" y="244820.00" type="priority"/>
    <node id="1000215" x="144073.00" y="245090.00" type="priority"/>
    <node id="1000216" x="144108.00" y="245255.00" type="priority"/>
    <node id="1000217" x="143959.00" y="245422.00" type="priority"/>
    <node id="1000218" x="144291.00" y="245565.00" type="priority"/>
    <node id="1000221" x="144959.50" y="245816.50" type="priority"/>
    <node id="1000222" x="144662.00" y="246008.00" type="priority"/>
    <node id="1000223" x="144599.00" y="245915.50" type="priority"/>
    <node id="1000224" x="144654.00" y="245694.50" type="priority"/>
    <node id="1000225" x="144963.50" y="245511.00" type="priority"/>
    <node id="1000232" x="145181.50" y="246311.50" type="priority"/>
    <node id="1000233" x="145149.00" y="246081.50" type="priority"/>
    <node id="1000244" x="144923.00" y="245108.00" type="priority"/>
    <node id="1000245" x="145424.00" y="245297.00" type="priority"/>
    <node id="1000249" x="145222.00" y="245388.00" type="priority"/>
    <node id="1000251" x="145144.50" y="245866.50" type="priority"/>
    <node id="1000253" x="144881.50" y="245671.50" type="priority"/>
    <node id="1000277" x="143860.00" y="246233.00" type="priority"/>
    <node id="1000281" x="144220.50" y="245861.50" type="priority"/>
    <node id="1000285" x="142951.00" y="246154.50" type="priority"/>
    <node id="1000286" x="143112.50" y="246458.50" type="priority"/>
    <node id="1000289" x="143255.00" y="246049.00" type="priority"/>
    <node id="1000293" x="143182.00" y="245803.00" type="priority"/>
    <node id="1000296" x="143387.50" y="245810.00" type="priority"/>
    <node id="1000297" x="142998.50" y="247049.50" type="priority"/>
    <node id="1000299" x="144316.00" y="247412.00" type="priority"/>
    <node id="1000300" x="143915.00" y="245898.50" type="priority"/>
    <node id="1000301" x="144163.00" y="246821.50" type="priority"/>
    <node id="1000302" x="144496.50" y="246602.00" type="priority"/>
    <node id="1000303" x="144388.00" y="246833.50" type="priority"/>
    <node id="1000304" x="144362.00" y="247166.50" type="priority"/>
    <node id="1000306" x="144913.00" y="247589.00" type="priority"/>
    <node id="1000307" x="144753.00" y="246643.00" type="priority"/>
    <node id="1000308" x="145098.50" y="246874.50" type="priority"/>
    <node id="1000311" x="145531.50" y="246646.00" type="priority"/>
    <node id="1000314" x="144503.00" y="246266.00" type="priority"/>
    <node id="1000316" x="143924.50" y="245701.00" type="priority"/>
    <node id="1000319" x="142792.00" y="243192.50" type="priority"/>
    <node id="1000336" x="145888.50" y="243799.00" type="priority"/>
    <node id="1000337" x="146276.00" y="243547.00" type="priority"/>
    <node id="1000338" x="145139.50" y="243505.50" type="priority"/>
    <node id="1000339" x="145316.50" y="243163.00" type="priority"/>
    <node id="1000341" x="145531.00" y="242790.50" type="priority"/>
    <node id="1000342" x="145760.50" y="242944.50" type="priority"/>
    <node id="1000343" x="146069.00" y="242542.00" type="priority"/>
    <node id="1000345" x="144883.50" y="244516.00" type="priority"/>
    <node id="1000348" x="145902.00" y="244966.00" type="priority"/>
    <node id="1000351" x="146323.50" y="244505.00" type="priority"/>
    <node id="1000362" x="146862.50" y="245015.50" type="priority"/>
    <node id="1000363" x="147270.50" y="245222.50" type="priority"/>
    <node id="1000366" x="147467.50" y="244679.50" type="priority"/>
    <node id="1000367" x="146259.50" y="245414.00" type="priority"/>
    <node id="1000370" x="146184.00" y="245114.50" type="priority"/>
    <node id="1000373" x="146335.50" y="243804.00" type="priority"/>
    <node id="1000376" x="147355.50" y="244850.50" type="priority"/>
    <node id="1000378" x="147713.50" y="244465.00" type="priority"/>
    <node id="1000379" x="147654.50" y="244244.50" type="priority"/>
    <node id="1000380" x="147865.00" y="244547.50" type="priority"/>
    <node id="1000381" x="147328.50" y="244093.00" type="priority"/>
    <node id="1000382" x="148151.00" y="244057.00" type="priority"/>
    <node id="1000385" x="148608.50" y="244070.00" type="priority"/>
    <node id="1000386" x="148217.00" y="244159.00" type="priority"/>
    <node id="1000388" x="147812.50" y="243320.50" type="priority"/>
    <node id="1000389" x="148092.00" y="243257.50" type="priority"/>
    <node id="1000393" x="147124.50" y="243382.50" type="priority"/>
    <node id="1000395" x="147209.00" y="245454.50" type="priority"/>
    <node id="1000398" x="147240.50" y="245972.00" type="priority"/>
    <node id="1000399" x="147022.50" y="245882.00" type="priority"/>
    <node id="1000400" x="146953.50" y="245588.00" type="priority"/>
    <node id="1000403" x="146057.50" y="245636.00" type="priority"/>
    <node id="1000407" x="148421.00" y="245469.50" type="priority"/>
    <node id="1000408" x="147678.50" y="245473.00" type="priority"/>
    <node id="1000409" x="147647.50" y="245985.00" type="priority"/>
    <node id="1000419" x="145958.50" y="246633.00" type="priority"/>
    <node id="1000422" x="146052.50" y="247060.50" type="priority"/>
    <node id="1000423" x="146345.50" y="246840.00" type="priority"/>
    <node id="1000425" x="146604.00" y="246861.50" type="priority"/>
    <node id="1000427" x="146821.50" y="246254.00" type="priority"/>
    <node id="1000428" x="146700.50" y="246458.50" type="priority"/>
    <node id="1000432" x="146069.00" y="247392.50" type="priority"/>
    <node id="1000436" x="139370.00" y="244641.00" type="priority"/>
    <node id="1000438" x="139157.50" y="244519.00" type="priority"/>
    <node id="1000439" x="138736.00" y="244458.50" type="priority"/>
    <node id="1000447" x="138514.50" y="244780.00" type="priority"/>
    <node id="1000448" x="138480.50" y="244271.50" type="priority"/>
    <node id="1000451" x="139210.00" y="243269.50" type="priority"/>
    <node id="1000452" x="138917.00" y="243388.00" type="priority"/>
    <node id="1000453" x="139196.00" y="243866.00" type="priority"/>
    <node id="1000454" x="139248.00" y="243848.50" type="priority"/>
    <node id="1000455" x="139509.50" y="243451.00" type="priority"/>
    <node id="1000456" x="139530.50" y="243245.00" type="priority"/>
    <node id="1000457" x="138850.50" y="243768.50" type="priority"/>
    <node id="1000458" x="138700.50" y="243786.00" type="priority"/>
    <node id="1000459" x="139663.00" y="243475.50" type="priority"/>
    <node id="1000466" x="137398.50" y="244646.00" type="priority"/>
    <node id="1000467" x="137350.50" y="245120.00" type="priority"/>
    <node id="1000470" x="136998.00" y="244691.00" type="priority"/>
    <node id="1000471" x="137681.00" y="244316.00" type="priority"/>
    <node id="1000482" x="138109.00" y="243569.00" type="priority"/>
    <node id="1000483" x="138311.00" y="243189.50" type="priority"/>
    <node id="1000484" x="138675.00" y="243407.50" type="priority"/>
    <node id="1000485" x="138648.00" y="243146.00" type="priority"/>
    <node id="1000486" x="138820.50" y="243448.00" type="priority"/>
    <node id="1000487" x="138098.00" y="243348.50" type="priority"/>
    <node id="1000495" x="138297.50" y="242974.00" type="priority"/>
    <node id="1000497" x="137061.00" y="244073.00" type="priority"/>
    <node id="1000498" x="137077.00" y="243876.50" type="priority"/>
    <node id="1000501" x="137904.00" y="243981.50" type="priority"/>
    <node id="1000503" x="140063.50" y="243488.00" type="priority"/>
    <node id="1000504" x="139716.50" y="243317.50" type="priority"/>
    <node id="1000505" x="139901.50" y="243544.00" type="priority"/>
    <node id="1000506" x="139996.00" y="243196.50" type="priority"/>
    <node id="1000511" x="140196.50" y="243827.00" type="priority"/>
    <node id="1000513" x="140830.00" y="243570.50" type="priority"/>
    <node id="1000517" x="139589.00" y="243037.00" type="priority"/>
    <node id="1000519" x="140340.50" y="243093.50" type="priority"/>
    <node id="1000520" x="140336.00" y="243075.50" type="priority"/>
    <node id="1000523" x="140241.00" y="243267.50" type="priority"/>
    <node id="1000524" x="140215.00" y="243282.00" type="priority"/>
    <node id="1000526" x="140635.50" y="242851.50" type="priority"/>
    <node id="1000527" x="140449.50" y="243346.50" type="priority"/>
    <node id="1000528" x="140893.50" y="243158.50" type="priority"/>
    <node id="1000529" x="140471.00" y="243695.00" type="priority"/>
    <node id="1000531" x="141294.00" y="243196.50" type="priority"/>
    <node id="1000536" x="146556.00" y="245925.50" type="priority"/>
    <node id="1000537" x="141797.50" y="245429.00" type="priority"/>
    <node id="1000538" x="141500.50" y="245897.50" type="priority"/>
    <node id="1000539" x="141498.50" y="246053.00" type="priority"/>
    <node id="1000540" x="141484.50" y="245944.50" type="priority"/>
    <node id="1000541" x="141686.50" y="246132.00" type="priority"/>
    <node id="1000542" x="141511.00" y="245925.50" type="priority"/>
    <node id="1000543" x="141563.50" y="245938.00" type="right_before_left"/>
    <node id="1000544" x="141543.00" y="245974.00" type="priority"/>
    <node id="1000545" x="141707.00" y="245697.00" type="priority"/>
    <node id="1000546" x="141541.00" y="245566.00" type="priority"/>
    <node id="1000547" x="141474.50" y="245556.50" type="priority"/>
    <node id="1000548" x="141376.50" y="245673.50" type="priority"/>
    <node id="1000549" x="141543.50" y="245669.00" type="right_before_left"/>
    <node id="1000550" x="141591.50" y="245936.00" type="priority"/>
    <node id="1000551" x="141479.00" y="245671.00" type="right_before_left"/>
    <node id="1000552" x="141704.50" y="245813.00" type="priority"/>
    <node id="1000553" x="141183.50" y="245608.50" type="priority"/>
    <node id="1000558" x="148859.00" y="244556.50" type="priority"/>
    <node id="1000559" x="148883.50" y="244600.00" type="priority"/>
    <node id="1000563" x="147685.00" y="246067.00" type="priority"/>
    <node id="1000565" x="147521.00" y="246509.00" type="priority"/>
    <node id="1000566" x="147681.50" y="246149.00" type="priority"/>
    <node id="1000571" x="144524.50" y="248151.50" type="priority"/>
    <node id="1000574" x="144563.50" y="248523.50" type="priority"/>
    <node id="1000576" x="143682.00" y="247495.00" type="priority"/>
    <node id="1000577" x="142611.00" y="247847.50" type="priority"/>
    <node id="1000578" x="142668.50" y="247015.00" type="priority"/>
    <node id="1000579" x="142024.00" y="247323.50" type="priority"/>
    <node id="1000580" x="141177.00" y="245780.50" type="priority"/>
    <node id="1000581" x="140278.00" y="246385.00" type="priority"/>
    <node id="1000582" x="140208.00" y="245564.50" type="priority"/>
    <node id="1000583" x="138808.50" y="245891.00" type="priority"/>
    <node id="1000584" x="137598.00" y="246298.00" type="priority"/>
    <node id="1000587" x="136650.50" y="243884.00" type="priority"/>
    <node id="1000589" x="136856.50" y="243871.00" type="priority"/>
    <node id="1000590" x="136941.50" y="243525.00" type="priority"/>
    <node id="1000591" x="137211.50" y="242607.50" type="priority"/>
    <node id="1000592" x="136941.50" y="242635.00" type="priority"/>
    <node id="1000593" x="136674.50" y="242334.00" type="priority"/>
    <node id="1000594" x="137591.50" y="243031.00" type="priority"/>
    <node id="1000595" x="137738.50" y="242613.50" type="priority"/>
    <node id="1000596" x="138073.50" y="241772.00" type="priority"/>
    <node id="1000597" x="137532.50" y="242553.00" type="priority"/>
    <node id="1000598" x="138802.00" y="242435.50" type="priority"/>
    <node id="1000601" x="137967.00" y="242076.00" type="priority"/>
    <node id="1000602" x="137803.00" y="241860.50" type="priority"/>
    <node id="1000603" x="138374.00" y="241378.00" type="priority"/>
    <node id="1000605" x="139282.50" y="242841.00" type="priority"/>
    <node id="1000606" x="139743.50" y="242400.00" type="priority"/>
    <node id="1000607" x="140166.00" y="240869.50" type="priority"/>
    <node id="1000608" x="140039.50" y="241626.50" type="priority"/>
    <node id="1000609" x="140807.50" y="241963.50" type="priority"/>
    <node id="1000610" x="140837.00" y="242435.50" type="priority"/>
    <node id="1000611" x="140628.00" y="241783.50" type="priority"/>
    <node id="1000612" x="140663.50" y="241214.00" type="priority"/>
    <node id="1000614" x="140911.00" y="240441.00" type="priority"/>
    <node id="1000616" x="142774.00" y="242343.00" type="priority"/>
    <node id="1000617" x="142708.50" y="241977.50" type="priority"/>
    <node id="1000618" x="142962.00" y="243191.50" type="priority"/>
    <node id="1000619" x="143438.00" y="242489.50" type="priority"/>
    <node id="1000620" x="143260.00" y="242205.50" type="priority"/>
    <node id="1000621" x="143625.50" y="242084.50" type="priority"/>
    <node id="1000622" x="142253.50" y="241076.00" type="priority"/>
    <node id="1000624" x="142322.00" y="240658.50" type="priority"/>
    <node id="1000625" x="145219.50" y="241718.00" type="priority"/>
    <node id="1000626" x="145596.50" y="241722.50" type="priority"/>
    <node id="1000627" x="145574.50" y="241518.50" type="priority"/>
    <node id="1000628" x="145747.50" y="241194.50" type="priority"/>
    <node id="1000629" x="147199.00" y="240578.50" type="priority"/>
    <node id="1000630" x="146693.00" y="241373.00" type="priority"/>
    <node id="1000631" x="147449.00" y="242501.50" type="priority"/>
    <node id="1000632" x="147408.50" y="242567.50" type="priority"/>
    <node id="1000633" x="147895.50" y="242524.00" type="priority"/>
    <node id="1000635" x="136696.00" y="242621.50" type="priority"/>
    <node id="1000636" x="143208.50" y="242654.00" type="priority"/>
    <node id="1000637" x="144363.00" y="242338.00" type="priority"/>
    <node id="1000638" x="145944.00" y="241103.50" type="priority"/>
    <node id="1000639" x="146286.50" y="240916.50" type="priority"/>
    <node id="1000640" x="144721.50" y="248061.00" type="priority"/>
    <node id="1000641" x="144185.00" y="248809.50" type="priority"/>
    <node id="1000642" x="144586.50" y="248909.50" type="priority"/>
    <node id="1000643" x="144223.00" y="249138.00" type="priority"/>
    <node id="1000644" x="144361.50" y="245150.50" type="priority"/>
    <node id="1000645" x="144657.50" y="245352.00" type="priority"/>
    <node id="1000647" x="144298.00" y="244965.50" type="priority"/>
    <node id="1000648" x="140463.00" y="243868.00" type="priority"/>
    <node id="1000650" x="141758.00" y="244401.50" type="priority"/>
    <node id="1000652" x="147719.50" y="239424.50" type="priority"/>
    <node id="1000653" x="147733.50" y="239246.00" type="priority"/>
    <node id="1000654" x="145230.50" y="259100.50" type="priority"/>
    <node id="1000655" x="145681.00" y="258660.00" type="priority"/>
    <node id="1000656" x="145356.50" y="258977.00" type="priority"/>
    <node id="1000657" x="145473.00" y="258869.50" type="priority"/>
    <node id="1000658" x="145208.50" y="258591.00" type="priority"/>
    <node id="1000659" x="145255.00" y="258653.50" type="priority"/>
    <node id="1000662" x="154573.50" y="257052.50" type="priority"/>
    <node id="1000663" x="154473.50" y="256781.00" type="priority"/>
    <node id="1000664" x="154442.50" y="256650.50" type="priority"/>
    <node id="1000665" x="153794.00" y="256108.50" type="priority"/>
    <node id="1000666" x="155485.50" y="255788.50" type="priority"/>
    <node id="1000669" x="154411.00" y="256018.50" type="priority"/>
    <node id="1000670" x="152946.00" y="256163.00" type="priority"/>
    <node id="1000671" x="155216.50" y="255822.50" type="priority"/>
    <node id="1000672" x="153993.50" y="256104.50" type="priority"/>
    <node id="1000673" x="154389.00" y="256048.50" type="priority"/>
    <node id="1000674" x="154347.50" y="256126.50" type="priority"/>
    <node id="1000675" x="154339.50" y="256173.50" type="priority"/>
    <node id="1000676" x="154376.00" y="256381.50" type="priority"/>
    <node id="1000677" x="154092.50" y="255958.00" type="priority"/>
    <node id="1000678" x="153767.00" y="255943.50" type="priority"/>
    <node id="1000679" x="152831.00" y="255982.50" type="priority"/>
    <node id="1000680" x="152677.50" y="255878.50" type="priority"/>
    <node id="1000681" x="152797.50" y="256080.50" type="priority"/>
    <node id="1000682" x="154128.00" y="256277.50" type="priority"/>
    <node id="1000683" x="154287.50" y="256049.50" type="priority"/>
    <node id="1000684" x="153928.00" y="257160.00" type="priority"/>
    <node id="1000688" x="138131.00" y="244551.00" type="priority"/>
    <node id="1000689" x="135856.00" y="242510.00" type="priority"/>
    <node id="1000691" x="139746.00" y="243017.00" type="priority"/>
    <node id="1000692" x="140088.00" y="243111.00" type="priority"/>
    <node id="1000693" x="140091.00" y="243070.00" type="priority"/>
    <node id="1000694" x="135521.00" y="243335.50" type="priority"/>
    <node id="1000695" x="135576.00" y="243068.50" type="priority"/>
    <node id="1000696" x="143668.50" y="245748.50" type="priority"/>
    <node id="1000701" x="144695.00" y="246173.50" type="priority"/>
    <node id="1000703" x="146550.50" y="251168.50" type="priority"/>
    <node id="1000707" x="146687.50" y="250791.50" type="priority"/>
    <node id="1000710" x="146828.00" y="249749.50" type="priority"/>
    <node id="1000711" x="148065.50" y="250348.00" type="priority"/>
    <node id="1000712" x="147809.00" y="249757.50" type="priority"/>
    <node id="1000714" x="145981.00" y="250152.50" type="priority"/>
    <node id="1000715" x="146048.50" y="249435.50" type="priority"/>
    <node id="1000716" x="145776.00" y="249219.50" type="priority"/>
    <node id="1000717" x="148580.00" y="249150.50" type="priority"/>
    <node id="1000718" x="149162.50" y="236934.50" type="priority"/>
    <node id="1000719" x="147975.00" y="238135.50" type="priority"/>
    <node id="1000720" x="148048.00" y="237996.00" type="priority"/>
    <node id="1000722" x="148032.50" y="237991.00" type="priority"/>
    <node id="1000723" x="147960.50" y="238130.00" type="priority"/>
    <node id="1000724" x="147983.00" y="238049.00" type="priority"/>
    <node id="1000725" x="150597.00" y="235835.50" type="priority"/>
    <node id="1000726" x="150589.50" y="235828.00" type="priority"/>
    <node id="1000727" x="150510.00" y="235903.50" type="priority"/>
    <node id="1000728" x="150502.00" y="235894.00" type="priority"/>
    <node id="1000729" x="141377.00" y="245780.00" type="priority"/>
    <node id="1000731" x="148501.50" y="243459.00" type="priority"/>
    <node id="1000732" x="148542.00" y="243451.00" type="priority"/>
    <node id="1000733" x="148627.50" y="243433.50" type="priority"/>
    <node id="1000734" x="148414.50" y="243166.50" type="priority"/>
    <node id="1000735" x="148446.50" y="243175.50" type="priority"/>
    <node id="1000736" x="148682.50" y="243594.00" type="priority"/>
    <node id="1000738" x="141839.00" y="244330.00" type="priority"/>
    <node id="1000740" x="151732.00" y="242278.00" type="priority"/>
    <node id="1000741" x="151847.50" y="242268.50" type="priority"/>
    <node id="1000742" x="151896.50" y="241871.50" type="priority"/>
    <node id="1000743" x="152397.00" y="241786.50" type="priority"/>
    <node id="1000744" x="152318.00" y="242573.50" type="priority"/>
    <node id="1000745" x="152069.50" y="242040.50" type="priority"/>
    <node id="1000751" x="152098.50" y="241420.00" type="priority"/>
    <node id="1000752" x="152177.50" y="241825.00" type="priority"/>
    <node id="1000753" x="151814.00" y="241193.50" type="priority"/>
    <node id="1000755" x="152359.50" y="241557.50" type="priority"/>
    <node id="1000757" x="152625.50" y="241798.00" type="priority"/>
    <node id="1000758" x="152385.00" y="242404.00" type="priority"/>
    <node id="1000759" x="152216.00" y="242063.50" type="priority"/>
    <node id="1000760" x="152269.50" y="242402.00" type="priority"/>
    <node id="1002" x="129371.50" y="245261.50" type="priority"/>
    <node id="1003" x="129270.50" y="245091.50" type="priority"/>
    <node id="1005" x="129207.50" y="245097.50" type="priority"/>
    <node id="1007" x="128890.50" y="245774.50" type="priority"/>
    <node id="1009" x="128850.50" y="246639.50" type="priority"/>
    <node id="1010" x="128691.50" y="246243.50" type="priority"/>
    <node id="1011" x="128682.50" y="246621.50" type="priority"/>
    <node id="1012" x="128874.50" y="246813.50" type="priority"/>
    <node id="1013" x="128881.50" y="247125.50" type="priority"/>
    <node id="1014" x="128957.50" y="247450.50" type="priority"/>
    <node id="1015" x="129005.50" y="247829.50" type="priority"/>
    <node id="1016" x="130204.50" y="244220.50" type="priority"/>
    <node id="1017" x="129919.50" y="244321.50" type="priority"/>
    <node id="1018" x="129532.50" y="244434.50" type="priority"/>
    <node id="1019" x="129971.50" y="244801.50" type="priority"/>
    <node id="1020" x="129976.50" y="245205.50" type="priority"/>
    <node id="1022" x="129965.50" y="245408.50" type="priority"/>
    <node id="1023" x="129947.50" y="245559.50" type="priority"/>
    <node id="1026" x="129593.50" y="246049.50" type="priority"/>
    <node id="1027" x="129721.50" y="245680.50" type="priority"/>
    <node id="1028" x="129799.50" y="245987.50" type="priority"/>
    <node id="1029" x="129822.50" y="246097.50" type="priority"/>
    <node id="1030" x="130000.00" y="246520.50" type="priority"/>
    <node id="1032" x="129905.50" y="246349.50" type="priority"/>
    <node id="1033" x="130063.00" y="246710.50" type="priority"/>
    <node id="1034" x="129723.50" y="246605.50" type="priority"/>
    <node id="1035" x="130146.50" y="247163.00" type="priority"/>
    <node id="1036" x="129779.50" y="246805.50" type="priority"/>
    <node id="1039" x="129405.50" y="246944.50" type="priority"/>
    <node id="1040" x="129982.50" y="247630.50" type="priority"/>
    <node id="1041" x="129699.50" y="247943.50" type="priority"/>
    <node id="1042" x="129741.50" y="247860.50" type="priority"/>
    <node id="1043" x="130794.50" y="244041.50" type="priority"/>
    <node id="1044" x="130349.50" y="245521.50" type="priority"/>
    <node id="1045" x="130644.50" y="245827.50" type="priority"/>
    <node id="1046" x="130899.50" y="245915.00" type="priority"/>
    <node id="1047" x="130944.50" y="246123.50" type="priority"/>
    <node id="1048" x="130453.50" y="245592.50" type="priority"/>
    <node id="1049" x="130643.50" y="246059.00" type="priority"/>
    <node id="1051" x="130431.00" y="246231.00" type="priority"/>
    <node id="1052" x="130477.00" y="246314.50" type="priority"/>
    <node id="1053" x="130614.50" y="246510.50" type="priority"/>
    <node id="1055" x="130485.50" y="246821.50" type="priority"/>
    <node id="1056" x="130398.50" y="246896.50" type="priority"/>
    <node id="1059" x="130471.50" y="247267.50" type="priority"/>
    <node id="1060" x="130281.50" y="247327.50" type="priority"/>
    <node id="1061" x="130358.50" y="247329.50" type="priority"/>
    <node id="1062" x="130608.50" y="247188.50" type="priority"/>
    <node id="1065" x="130409.50" y="247792.00" type="priority"/>
    <node id="1066" x="130342.50" y="247397.50" type="priority"/>
    <node id="1067" x="130272.50" y="247395.50" type="priority"/>
    <node id="1068" x="130511.00" y="247647.50" type="priority"/>
    <node id="1069" x="131387.50" y="243855.00" type="priority"/>
    <node id="1070" x="131620.50" y="244128.50" type="right_before_left"/>
    <node id="1071" x="131723.00" y="244027.50" type="priority"/>
    <node id="1073" x="131461.50" y="244442.50" type="priority"/>
    <node id="1076" x="131185.50" y="245868.50" type="priority"/>
    <node id="1077" x="131627.50" y="246090.00" type="priority"/>
    <node id="1078" x="131041.00" y="246407.50" type="priority"/>
    <node id="1079" x="131018.50" y="247163.50" type="priority"/>
    <node id="1080" x="131516.00" y="246996.00" type="priority"/>
    <node id="1081" x="132083.50" y="243648.50" type="priority"/>
    <node id="1082" x="132096.50" y="243368.50" type="priority"/>
    <node id="1083" x="132562.50" y="243695.50" type="priority"/>
    <node id="1084" x="132074.50" y="243753.50" type="right_before_left"/>
    <node id="1085" x="132318.50" y="245984.50" type="priority"/>
    <node id="1086" x="132348.50" y="246181.50" type="priority"/>
    <node id="1087" x="132270.50" y="247290.50" type="priority"/>
    <node id="1088" x="132270.50" y="247169.50" type="priority"/>
    <node id="1089" x="132050.50" y="247113.50" type="priority"/>
    <node id="1090" x="132276.50" y="247350.50" type="priority"/>
    <node id="1091" x="133007.50" y="243746.50" type="priority"/>
    <node id="1092" x="132884.50" y="244231.50" type="priority"/>
    <node id="1096" x="133364.50" y="245624.50" type="priority"/>
    <node id="1097" x="133166.50" y="245695.50" type="priority"/>
    <node id="1098" x="132821.50" y="246086.50" type="priority"/>
    <node id="1099" x="133293.50" y="245971.50" type="priority"/>
    <node id="1100" x="133341.00" y="247165.00" type="priority"/>
    <node id="1101" x="133140.50" y="247182.50" type="priority"/>
    <node id="1102" x="132648.50" y="247248.50" type="priority"/>
    <node id="1103" x="132785.50" y="247690.50" type="priority"/>
    <node id="1104" x="132467.50" y="247544.00" type="priority"/>
    <node id="1105" x="133281.50" y="247848.00" type="priority"/>
    <node id="1106" x="133252.50" y="247725.00" type="priority"/>