<?xml version="1.0" encoding="UTF-8"?>

<!-- generated on Wed Sep 25 09:47:40 2019 by Eclipse SUMO netconvert Version v1_3_1+0443-48309f7
<configuration xmlns:xsi="http://www.w3.org/2001/XMLSchema-instance" xsi:noNamespaceSchemaLocation="http://sumo.dlr.de/xsd/netconvertConfiguration.xsd">

    <input>
        <sumo-net-file value="Sumo_MATSim.net.xml"/>
    </input>

    <output>
        <plain-output-prefix value="plain"/>
    </output>

    <processing>
        <geometry.max-grade.fix value="false"/>
        <offset.disable-normalization value="true"/>
        <lefthand value="false"/>
    </processing>

    <junctions>
        <no-turnarounds value="true"/>
        <junctions.corner-detail value="5"/>
        <junctions.limit-turn-speed value="5.5"/>
        <rectangular-lane-cut value="false"/>
    </junctions>

    <pedestrian>
        <walkingareas value="false"/>
    </pedestrian>

</configuration>
-->

<edges version="1.3" xmlns:xsi="http://www.w3.org/2001/XMLSchema-instance" xsi:noNamespaceSchemaLocation="http://sumo.dlr.de/xsd/edges_file.xsd">
    <edge id="1" from="18" to="1000549" priority="-1" numLanes="1" speed="8.33">
        <param key="capacity" value="5000.00"/>
    </edge>
    <edge id="10" from="885" to="883" priority="-1" numLanes="1" speed="13.89">
        <param key="capacity" value="9800.00"/>
    </edge>
    <edge id="100" from="947" to="940" priority="-1" numLanes="1" speed="8.33">
        <param key="capacity" value="7000.00"/>
    </edge>
    <edge id="1000" from="1412" to="1411" priority="-1" numLanes="1" speed="13.89">
        <param key="capacity" value="11200.00"/>
    </edge>
    <edge id="10000" from="600165" to="600017" priority="-1" numLanes="1" speed="22.22">
        <param key="capacity" value="11200.00"/>
    </edge>
    <edge id="10001" from="600017" to="730537" priority="-1" numLanes="1" speed="19.44">
        <param key="capacity" value="9800.00"/>
    </edge>
    <edge id="10002" from="730537" to="600017" priority="-1" numLanes="1" speed="19.44">
        <param key="capacity" value="9800.00"/>
    </edge>
    <edge id="10003" from="600031" to="600055" priority="-1" numLanes="1" speed="13.89">
        <param key="capacity" value="9800.00"/>
    </edge>
    <edge id="10004" from="600055" to="600031" priority="-1" numLanes="1" speed="13.89">
        <param key="capacity" value="9800.00"/>
    </edge>
    <edge id="10005" from="600051" to="600055" priority="-1" numLanes="1" speed="19.44">
        <param key="capacity" value="9800.00"/>
    </edge>
    <edge id="10006" from="600055" to="600051" priority="-1" numLanes="1" speed="19.44">
        <param key="capacity" value="9800.00"/>
    </edge>
    <edge id="10007" from="600031" to="730553" priority="-1" numLanes="1" speed="19.44">
        <param key="capacity" value="9800.00"/>
    </edge>
    <edge id="10008" from="730553" to="600031" priority="-1" numLanes="1" speed="19.44">
        <param key="capacity" value="9800.00"/>
    </edge>
    <edge id="10009" from="600097" to="730565" priority="-1" numLanes="1" speed="22.22">
        <param key="capacity" value="11200.00"/>
    </edge>
    <edge id="1001" from="1412" to="1413" priority="-1" numLanes="1" speed="8.33">
        <param key="capacity" value="9800.00"/>
    </edge>
    <edge id="10010" from="730565" to="600097" priority="-1" numLanes="1" speed="22.22">
        <param key="capacity" value="11200.00"/>
    </edge>
    <edge id="10011" from="600090" to="600101" priority="-1" numLanes="1" speed="13.89">
        <param key="capacity" value="11200.00"/>
    </edge>
    <edge id="10012" from="600101" to="600090" priority="-1" numLanes="1" speed="13.89">
        <param key="capacity" value="11200.00"/>
    </edge>
    <edge id="10013" from="600097" to="600101" priority="-1" numLanes="1" speed="22.22">
        <param key="capacity" value="11200.00"/>
    </edge>
    <edge id="10014" from="600101" to="600097" priority="-1" numLanes="1" speed="22.22">
        <param key="capacity" value="11200.00"/>
    </edge>
    <edge id="10015" from="600172" to="600179" priority="-1" numLanes="1" speed="13.89">
        <param key="capacity" value="11200.00"/>
    </edge>
    <edge id="10016" from="600179" to="600172" priority="-1" numLanes="1" speed="13.89">
        <param key="capacity" value="11200.00"/>
    </edge>
    <edge id="10017" from="600060" to="600172" priority="-1" numLanes="1" speed="22.22">
        <param key="capacity" value="11200.00"/>
    </edge>
    <edge id="10018" from="600172" to="600060" priority="-1" numLanes="1" speed="22.22">
        <param key="capacity" value="11200.00"/>
    </edge>
    <edge id="10019" from="600009" to="600166" priority="-1" numLanes="1" speed="13.89">
        <param key="capacity" value="11200.00"/>
    </edge>
    <edge id="1002" from="1413" to="1412" priority="-1" numLanes="1" speed="8.33">
        <param key="capacity" value="9800.00"/>
    </edge>
    <edge id="10020" from="600166" to="600009" priority="-1" numLanes="1" speed="13.89">
        <param key="capacity" value="11200.00"/>
    </edge>
    <edge id="10021" from="600166" to="600167" priority="-1" numLanes="1" speed="22.22">
        <param key="capacity" value="11200.00"/>
    </edge>
    <edge id="10022" from="600167" to="600166" priority="-1" numLanes="1" speed="22.22">
        <param key="capacity" value="11200.00"/>
    </edge>
    <edge id="10023" from="600017" to="600168" priority="-1" numLanes="1" speed="22.22">
        <param key="capacity" value="11200.00"/>
    </edge>
    <edge id="10024" from="600168" to="600017" priority="-1" numLanes="1" speed="22.22">
        <param key="capacity" value="11200.00"/>
    </edge>
    <edge id="10025" from="600168" to="600169" priority="-1" numLanes="1" speed="13.89">
        <param key="capacity" value="11200.00"/>
    </edge>
    <edge id="10026" from="600169" to="600168" priority="-1" numLanes="1" speed="13.89">
        <param key="capacity" value="11200.00"/>
    </edge>
    <edge id="10027" from="600016" to="600169" priority="-1" numLanes="1" speed="22.22">
        <param key="capacity" value="11200.00"/>
    </edge>
    <edge id="10028" from="600169" to="600016" priority="-1" numLanes="1" speed="22.22">
        <param key="capacity" value="11200.00"/>
    </edge>
    <edge id="10029" from="600030" to="600186" priority="-1" numLanes="1" speed="13.89">
        <param key="capacity" value="9800.00"/>
    </edge>
    <edge id="1003" from="1412" to="1435" priority="-1" numLanes="1" speed="13.89">
        <param key="capacity" value="11200.00"/>
    </edge>
    <edge id="10030" from="600186" to="600030" priority="-1" numLanes="1" speed="13.89">
        <param key="capacity" value="9800.00"/>
    </edge>
    <edge id="10031" from="600027" to="600187" priority="-1" numLanes="1" speed="13.89">
        <param key="capacity" value="9800.00"/>
    </edge>
    <edge id="10032" from="600187" to="600027" priority="-1" numLanes="1" speed="13.89">
        <param key="capacity" value="9800.00"/>
    </edge>
    <edge id="10033" from="600028" to="600187" priority="-1" numLanes="1" speed="19.44">
        <param key="capacity" value="9800.00"/>
    </edge>
    <edge id="10034" from="600187" to="600028" priority="-1" numLanes="1" speed="19.44">
        <param key="capacity" value="9800.00"/>
    </edge>
    <edge id="10035" from="600202" to="600203" priority="-1" numLanes="1" speed="19.44">
        <param key="capacity" value="9800.00"/>
    </edge>
    <edge id="10036" from="600203" to="600202" priority="-1" numLanes="1" speed="19.44">
        <param key="capacity" value="9800.00"/>
    </edge>
    <edge id="10037" from="600202" to="600204" priority="-1" numLanes="1" speed="13.89">
        <param key="capacity" value="9800.00"/>
    </edge>
    <edge id="10038" from="600204" to="600202" priority="-1" numLanes="1" speed="13.89">
        <param key="capacity" value="9800.00"/>
    </edge>
    <edge id="10039" from="600226" to="600227" priority="-1" numLanes="1" speed="19.44">
        <param key="capacity" value="9800.00"/>
    </edge>
    <edge id="1004" from="1435" to="1412" priority="-1" numLanes="1" speed="13.89">
        <param key="capacity" value="11200.00"/>
    </edge>
    <edge id="10040" from="600227" to="600226" priority="-1" numLanes="1" speed="19.44">
        <param key="capacity" value="9800.00"/>
    </edge>
    <edge id="10041" from="600204" to="600228" priority="-1" numLanes="1" speed="19.44">
        <param key="capacity" value="9800.00"/>
    </edge>
    <edge id="10042" from="600228" to="600204" priority="-1" numLanes="1" speed="19.44">
        <param key="capacity" value="9800.00"/>
    </edge>
    <edge id="10043" from="600227" to="600228" priority="-1" numLanes="1" speed="13.89">
        <param key="capacity" value="9800.00"/>
    </edge>
    <edge id="10044" from="600228" to="600227" priority="-1" numLanes="1" speed="13.89">
        <param key="capacity" value="9800.00"/>
    </edge>
    <edge id="10045" from="600201" to="600258" priority="-1" numLanes="1" speed="13.89">
        <param key="capacity" value="9800.00"/>
    </edge>
    <edge id="10046" from="600258" to="600201" priority="-1" numLanes="1" speed="13.89">
        <param key="capacity" value="9800.00"/>
    </edge>
    <edge id="10047" from="600235" to="600258" priority="-1" numLanes="1" speed="19.44">
        <param key="capacity" value="9800.00"/>
    </edge>
    <edge id="10048" from="600258" to="600235" priority="-1" numLanes="1" speed="19.44">
        <param key="capacity" value="9800.00"/>
    </edge>
    <edge id="10049" from="600233" to="600238" priority="-1" numLanes="1" speed="13.89">
        <param key="capacity" value="11200.00"/>
    </edge>
    <edge id="1005" from="1415" to="1903" priority="-1" numLanes="1" speed="13.89">
        <param key="capacity" value="11200.00"/>
    </edge>
    <edge id="10050" from="600238" to="600233" priority="-1" numLanes="1" speed="13.89">
        <param key="capacity" value="11200.00"/>
    </edge>
    <edge id="10051" from="600229" to="600230" priority="-1" numLanes="1" speed="19.44">
        <param key="capacity" value="9800.00"/>
    </edge>
    <edge id="10052" from="600230" to="600229" priority="-1" numLanes="1" speed="19.44">
        <param key="capacity" value="9800.00"/>
    </edge>
    <edge id="10053" from="600013" to="600016" priority="-1" numLanes="1" speed="22.22">
        <param key="capacity" value="11200.00"/>
    </edge>
    <edge id="10054" from="600016" to="600013" priority="-1" numLanes="1" speed="22.22">
        <param key="capacity" value="11200.00"/>
    </edge>
    <edge id="10055" from="600173" to="640316" priority="-1" numLanes="1" speed="19.44">
        <param key="capacity" value="9800.00"/>
    </edge>
    <edge id="10056" from="640316" to="600173" priority="-1" numLanes="1" speed="19.44">
        <param key="capacity" value="9800.00"/>
    </edge>
    <edge id="10057" from="600207" to="600215" priority="-1" numLanes="1" speed="22.22">
        <param key="capacity" value="11200.00"/>
    </edge>
    <edge id="10058" from="600215" to="600207" priority="-1" numLanes="1" speed="22.22">
        <param key="capacity" value="11200.00"/>
    </edge>
    <edge id="10059" from="600219" to="600393" priority="-1" numLanes="1" speed="13.89">
        <param key="capacity" value="11200.00"/>
    </edge>
    <edge id="1006" from="1903" to="1415" priority="-1" numLanes="1" speed="13.89">
        <param key="capacity" value="11200.00"/>
    </edge>
    <edge id="10060" from="600393" to="600219" priority="-1" numLanes="1" speed="13.89">
        <param key="capacity" value="11200.00"/>
    </edge>
    <edge id="10061" from="600002" to="600207" priority="-1" numLanes="1" speed="13.89">
        <param key="capacity" value="11200.00"/>
    </edge>
    <edge id="10062" from="600207" to="600002" priority="-1" numLanes="1" speed="13.89">
        <param key="capacity" value="11200.00"/>
    </edge>
    <edge id="10063" from="600002" to="600205" priority="-1" numLanes="1" speed="22.22">
        <param key="capacity" value="11200.00"/>
    </edge>
    <edge id="10064" from="600205" to="600002" priority="-1" numLanes="1" speed="22.22">
        <param key="capacity" value="11200.00"/>
    </edge>
    <edge id="10065" from="600003" to="600216" priority="-1" numLanes="1" speed="13.89">
        <param key="capacity" value="9800.00"/>
    </edge>
    <edge id="10066" from="600216" to="600003" priority="-1" numLanes="1" speed="13.89">
        <param key="capacity" value="9800.00"/>
    </edge>
    <edge id="10067" from="600340" to="600341" priority="-1" numLanes="1" speed="13.89">
        <param key="capacity" value="11200.00"/>
    </edge>
    <edge id="10068" from="600341" to="600340" priority="-1" numLanes="1" speed="13.89">
        <param key="capacity" value="11200.00"/>
    </edge>
    <edge id="10069" from="600340" to="600343" priority="-1" numLanes="1" speed="22.22">
        <param key="capacity" value="11200.00"/>
    </edge>
    <edge id="1007" from="1415" to="1416" priority="-1" numLanes="1" speed="13.89">
        <param key="capacity" value="11200.00"/>
    </edge>
    <edge id="10070" from="600343" to="600340" priority="-1" numLanes="1" speed="22.22">
        <param key="capacity" value="11200.00"/>
    </edge>
    <edge id="10071" from="600279" to="600341" priority="-1" numLanes="1" speed="22.22">
        <param key="capacity" value="11200.00"/>
    </edge>
    <edge id="10072" from="600341" to="600279" priority="-1" numLanes="1" speed="22.22">
        <param key="capacity" value="11200.00"/>
    </edge>
    <edge id="10073" from="600278" to="600279" priority="-1" numLanes="1" speed="22.22">
        <param key="capacity" value="11200.00"/>
    </edge>
    <edge id="10074" from="600279" to="600278" priority="-1" numLanes="1" speed="22.22">
        <param key="capacity" value="11200.00"/>
    </edge>
    <edge id="10075" from="600004" to="600212" priority="-1" numLanes="1" speed="13.89">
        <param key="capacity" value="11200.00"/>
    </edge>
    <edge id="10076" from="600212" to="600004" priority="-1" numLanes="1" speed="13.89">
        <param key="capacity" value="11200.00"/>
    </edge>
    <edge id="10077" from="600207" to="600210" priority="-1" numLanes="1" speed="22.22">
        <param key="capacity" value="11200.00"/>
    </edge>
    <edge id="10078" from="600210" to="600207" priority="-1" numLanes="1" speed="22.22">
        <param key="capacity" value="11200.00"/>
    </edge>
    <edge id="10079" from="600279" to="600344" priority="-1" numLanes="1" speed="22.22">
        <param key="capacity" value="11200.00"/>
    </edge>
    <edge id="1008" from="1416" to="1415" priority="-1" numLanes="1" speed="13.89">
        <param key="capacity" value="11200.00"/>
    </edge>
    <edge id="10080" from="600344" to="600279" priority="-1" numLanes="1" speed="22.22">
        <param key="capacity" value="11200.00"/>
    </edge>
    <edge id="10081" from="600280" to="600325" priority="-1" numLanes="1" speed="19.44">
        <param key="capacity" value="9800.00"/>
    </edge>
    <edge id="10082" from="600325" to="600280" priority="-1" numLanes="1" speed="19.44">
        <param key="capacity" value="9800.00"/>
    </edge>
    <edge id="10083" from="600293" to="600345" priority="-1" numLanes="1" speed="22.22">
        <param key="capacity" value="11200.00"/>
    </edge>
    <edge id="10084" from="600345" to="600293" priority="-1" numLanes="1" speed="22.22">
        <param key="capacity" value="11200.00"/>
    </edge>
    <edge id="10085" from="600293" to="1000684" priority="-1" numLanes="1" speed="22.22">
        <param key="capacity" value="11200.00"/>
    </edge>
    <edge id="10086" from="1000684" to="600293" priority="-1" numLanes="1" speed="22.22">
        <param key="capacity" value="11200.00"/>
    </edge>
    <edge id="10087" from="600292" to="600346" priority="-1" numLanes="1" speed="13.89">
        <param key="capacity" value="11200.00"/>
    </edge>
    <edge id="10088" from="600346" to="600292" priority="-1" numLanes="1" speed="13.89">
        <param key="capacity" value="11200.00"/>
    </edge>
    <edge id="10089" from="600347" to="600384" priority="-1" numLanes="1" speed="13.89">
        <param key="capacity" value="11200.00"/>
    </edge>
    <edge id="1009" from="1678" to="1683" priority="-1" numLanes="2" speed="13.89">
        <param key="capacity" value="33600.00"/>
    </edge>
    <edge id="10090" from="600384" to="600347" priority="-1" numLanes="1" speed="13.89">
        <param key="capacity" value="11200.00"/>
    </edge>
    <edge id="10091" from="600291" to="600293" priority="-1" numLanes="1" speed="16.67">
        <param key="capacity" value="11200.00"/>
    </edge>
    <edge id="10092" from="600293" to="600291" priority="-1" numLanes="1" speed="16.67">
        <param key="capacity" value="11200.00"/>
    </edge>
    <edge id="10093" from="600348" to="600349" priority="-1" numLanes="1" speed="13.89">
        <param key="capacity" value="11200.00"/>
    </edge>
    <edge id="10094" from="600349" to="600348" priority="-1" numLanes="1" speed="13.89">
        <param key="capacity" value="11200.00"/>
    </edge>
    <edge id="10095" from="600275" to="600348" priority="-1" numLanes="1" speed="22.22">
        <param key="capacity" value="11200.00"/>
    </edge>
    <edge id="10096" from="600348" to="600275" priority="-1" numLanes="1" speed="22.22">
        <param key="capacity" value="11200.00"/>
    </edge>
    <edge id="10097" from="600330" to="600331" priority="-1" numLanes="1" speed="13.89">
        <param key="capacity" value="9800.00"/>
    </edge>
    <edge id="10098" from="600331" to="600330" priority="-1" numLanes="1" speed="13.89">
        <param key="capacity" value="9800.00"/>
    </edge>
    <edge id="10099" from="600331" to="600378" priority="-1" numLanes="1" speed="19.44">
        <param key="capacity" value="9800.00"/>
    </edge>
    <edge id="101" from="942" to="945" priority="-1" numLanes="1" speed="8.33">
        <param key="capacity" value="7000.00"/>
    </edge>
    <edge id="10100" from="600378" to="600331" priority="-1" numLanes="1" speed="19.44">
        <param key="capacity" value="9800.00"/>
    </edge>
    <edge id="10101" from="600379" to="650035" priority="-1" numLanes="1" speed="19.44">
        <param key="capacity" value="9800.00"/>
    </edge>
    <edge id="10102" from="650035" to="600379" priority="-1" numLanes="1" speed="19.44">
        <param key="capacity" value="9800.00"/>
    </edge>
    <edge id="10103" from="600259" to="600260" priority="-1" numLanes="1" speed="13.89">
        <param key="capacity" value="9800.00"/>
    </edge>
    <edge id="10104" from="600260" to="600259" priority="-1" numLanes="1" speed="13.89">
        <param key="capacity" value="9800.00"/>
    </edge>
    <edge id="10105" from="600251" to="600259" priority="-1" numLanes="1" speed="19.44">
        <param key="capacity" value="9800.00"/>
    </edge>
    <edge id="10106" from="600259" to="600251" priority="-1" numLanes="1" speed="19.44">
        <param key="capacity" value="9800.00"/>
    </edge>
    <edge id="10107" from="600252" to="600260" priority="-1" numLanes="1" speed="19.44">
        <param key="capacity" value="9800.00"/>
    </edge>
    <edge id="10108" from="600260" to="600252" priority="-1" numLanes="1" speed="19.44">
        <param key="capacity" value="9800.00"/>
    </edge>
    <edge id="10109" from="600250" to="600261" priority="-1" numLanes="1" speed="22.22">
        <param key="capacity" value="11200.00"/>
    </edge>
    <edge id="1011" from="1439" to="1903" priority="-1" numLanes="1" speed="13.89">
        <param key="capacity" value="11200.00"/>
    </edge>
    <edge id="10110" from="600261" to="600250" priority="-1" numLanes="1" speed="22.22">
        <param key="capacity" value="11200.00"/>
    </edge>
    <edge id="10111" from="600361" to="600362" priority="-1" numLanes="1" speed="22.22">
        <param key="capacity" value="11200.00"/>
    </edge>
    <edge id="10112" from="600362" to="600361" priority="-1" numLanes="1" speed="22.22">
        <param key="capacity" value="11200.00"/>
    </edge>
    <edge id="10113" from="600363" to="600364" priority="-1" numLanes="1" speed="22.22">
        <param key="capacity" value="11200.00"/>
    </edge>
    <edge id="10114" from="600364" to="600363" priority="-1" numLanes="1" speed="22.22">
        <param key="capacity" value="11200.00"/>
    </edge>
    <edge id="10115" from="600306" to="600365" priority="-1" numLanes="1" speed="13.89">
        <param key="capacity" value="11200.00"/>
    </edge>
    <edge id="10116" from="600365" to="600306" priority="-1" numLanes="1" speed="13.89">
        <param key="capacity" value="11200.00"/>
    </edge>
    <edge id="10117" from="600297" to="600366" priority="-1" numLanes="1" speed="13.89">
        <param key="capacity" value="11200.00"/>
    </edge>
    <edge id="10118" from="600366" to="600297" priority="-1" numLanes="1" speed="13.89">
        <param key="capacity" value="11200.00"/>
    </edge>
    <edge id="10119" from="600365" to="600366" priority="-1" numLanes="1" speed="22.22">
        <param key="capacity" value="11200.00"/>
    </edge>
    <edge id="1012" from="1903" to="1439" priority="-1" numLanes="1" speed="13.89">
        <param key="capacity" value="11200.00"/>
    </edge>
    <edge id="10120" from="600366" to="600365" priority="-1" numLanes="1" speed="22.22">
        <param key="capacity" value="11200.00"/>
    </edge>
    <edge id="10121" from="600140" to="600367" priority="-1" numLanes="1" speed="19.44">
        <param key="capacity" value="9800.00"/>
    </edge>
    <edge id="10122" from="600367" to="600140" priority="-1" numLanes="1" speed="19.44">
        <param key="capacity" value="9800.00"/>
    </edge>
    <edge id="10123" from="600355" to="600356" priority="-1" numLanes="1" speed="13.89">
        <param key="capacity" value="9800.00"/>
    </edge>
    <edge id="10124" from="600356" to="600355" priority="-1" numLanes="1" speed="13.89">
        <param key="capacity" value="9800.00"/>
    </edge>
    <edge id="10125" from="600355" to="650015" priority="-1" numLanes="1" speed="19.44">
        <param key="capacity" value="9800.00"/>
    </edge>
    <edge id="10126" from="650015" to="600355" priority="-1" numLanes="1" speed="19.44">
        <param key="capacity" value="9800.00"/>
    </edge>
    <edge id="10127" from="600357" to="600368" priority="-1" numLanes="1" speed="13.89">
        <param key="capacity" value="9800.00"/>
    </edge>
    <edge id="10128" from="600368" to="600357" priority="-1" numLanes="1" speed="13.89">
        <param key="capacity" value="9800.00"/>
    </edge>
    <edge id="10129" from="600268" to="600357" priority="-1" numLanes="1" speed="19.44">
        <param key="capacity" value="9800.00"/>
    </edge>
    <edge id="10130" from="600357" to="600268" priority="-1" numLanes="1" speed="19.44">
        <param key="capacity" value="9800.00"/>
    </edge>
    <edge id="10131" from="600270" to="600368" priority="-1" numLanes="1" speed="19.44">
        <param key="capacity" value="9800.00"/>
    </edge>
    <edge id="10132" from="600368" to="600270" priority="-1" numLanes="1" speed="19.44">
        <param key="capacity" value="9800.00"/>
    </edge>
    <edge id="10133" from="600301" to="600369" priority="-1" numLanes="1" speed="19.44">
        <param key="capacity" value="9800.00"/>
    </edge>
    <edge id="10134" from="600369" to="600301" priority="-1" numLanes="1" speed="19.44">
        <param key="capacity" value="9800.00"/>
    </edge>
    <edge id="10135" from="600300" to="600377" priority="-1" numLanes="1" speed="13.89">
        <param key="capacity" value="9800.00"/>
    </edge>
    <edge id="10136" from="600377" to="600300" priority="-1" numLanes="1" speed="13.89">
        <param key="capacity" value="9800.00"/>
    </edge>
    <edge id="10137" from="600301" to="600377" priority="-1" numLanes="1" speed="19.44">
        <param key="capacity" value="9800.00"/>
    </edge>
    <edge id="10138" from="600377" to="600301" priority="-1" numLanes="1" speed="19.44">
        <param key="capacity" value="9800.00"/>
    </edge>
    <edge id="10139" from="600157" to="600370" priority="-1" numLanes="1" speed="13.89">
        <param key="capacity" value="9800.00"/>
    </edge>
    <edge id="1014" from="1683" to="1682" priority="-1" numLanes="1" speed="11.11">
        <param key="capacity" value="9800.00"/>
    </edge>
    <edge id="10140" from="600370" to="600157" priority="-1" numLanes="1" speed="13.89">
        <param key="capacity" value="9800.00"/>
    </edge>
    <edge id="10141" from="600304" to="600371" priority="-1" numLanes="1" speed="13.89">
        <param key="capacity" value="9800.00"/>
    </edge>
    <edge id="10142" from="600371" to="600304" priority="-1" numLanes="1" speed="13.89">
        <param key="capacity" value="9800.00"/>
    </edge>
    <edge id="10143" from="600305" to="600371" priority="-1" numLanes="1" speed="19.44">
        <param key="capacity" value="9800.00"/>
    </edge>
    <edge id="10144" from="600371" to="600305" priority="-1" numLanes="1" speed="19.44">
        <param key="capacity" value="9800.00"/>
    </edge>
    <edge id="10145" from="600257" to="600262" priority="-1" numLanes="1" speed="13.89">
        <param key="capacity" value="9800.00"/>
    </edge>
    <edge id="10146" from="600262" to="600257" priority="-1" numLanes="1" speed="13.89">
        <param key="capacity" value="9800.00"/>
    </edge>
    <edge id="10147" from="600262" to="600263" priority="-1" numLanes="1" speed="19.44">
        <param key="capacity" value="9800.00"/>
    </edge>
    <edge id="10148" from="600263" to="600262" priority="-1" numLanes="1" speed="19.44">
        <param key="capacity" value="9800.00"/>
    </edge>
    <edge id="10149" from="600350" to="600351" priority="-1" numLanes="1" speed="13.89">
        <param key="capacity" value="9800.00"/>
    </edge>
    <edge id="1015" from="2448" to="2449" priority="-1" numLanes="1" speed="11.11">
        <param key="capacity" value="9800.00"/>
    </edge>
    <edge id="10150" from="600351" to="600350" priority="-1" numLanes="1" speed="13.89">
        <param key="capacity" value="9800.00"/>
    </edge>
    <edge id="10151" from="600290" to="600350" priority="-1" numLanes="1" speed="19.44">
        <param key="capacity" value="9800.00"/>
    </edge>
    <edge id="10152" from="600350" to="600290" priority="-1" numLanes="1" speed="19.44">
        <param key="capacity" value="9800.00"/>
    </edge>
    <edge id="10153" from="600277" to="600351" priority="-1" numLanes="1" speed="19.44">
        <param key="capacity" value="9800.00"/>
    </edge>
    <edge id="10154" from="600351" to="600277" priority="-1" numLanes="1" speed="19.44">
        <param key="capacity" value="9800.00"/>
    </edge>
    <edge id="10155" from="600102" to="600267" priority="-1" numLanes="1" speed="19.44">
        <param key="capacity" value="9800.00"/>
    </edge>
    <edge id="10156" from="600267" to="600102" priority="-1" numLanes="1" speed="19.44">
        <param key="capacity" value="9800.00"/>
    </edge>
    <edge id="10157" from="600103" to="730563" priority="-1" numLanes="1" speed="19.44">
        <param key="capacity" value="9800.00"/>
    </edge>
    <edge id="10158" from="730563" to="600103" priority="-1" numLanes="1" speed="19.44">
        <param key="capacity" value="9800.00"/>
    </edge>
    <edge id="10159" from="600097" to="600104" priority="-1" numLanes="1" speed="19.44">
        <param key="capacity" value="9800.00"/>
    </edge>
    <edge id="10160" from="600104" to="600097" priority="-1" numLanes="1" speed="19.44">
        <param key="capacity" value="9800.00"/>
    </edge>
    <edge id="10161" from="600027" to="600188" priority="-1" numLanes="1" speed="13.89">
        <param key="capacity" value="9800.00"/>
    </edge>
    <edge id="10162" from="600188" to="600027" priority="-1" numLanes="1" speed="13.89">
        <param key="capacity" value="9800.00"/>
    </edge>
    <edge id="10163" from="600026" to="600188" priority="-1" numLanes="1" speed="19.44">
        <param key="capacity" value="9800.00"/>
    </edge>
    <edge id="10164" from="600188" to="600026" priority="-1" numLanes="1" speed="19.44">
        <param key="capacity" value="9800.00"/>
    </edge>
    <edge id="10165" from="600030" to="600190" priority="-1" numLanes="1" speed="19.44">
        <param key="capacity" value="9800.00"/>
    </edge>
    <edge id="10166" from="600190" to="600030" priority="-1" numLanes="1" speed="19.44">
        <param key="capacity" value="9800.00"/>
    </edge>
    <edge id="10167" from="600010" to="600412" priority="-1" numLanes="1" speed="19.44">
        <param key="capacity" value="9800.00"/>
    </edge>
    <edge id="10168" from="600412" to="600010" priority="-1" numLanes="1" speed="19.44">
        <param key="capacity" value="9800.00"/>
    </edge>
    <edge id="10169" from="600243" to="600254" priority="-1" numLanes="1" speed="13.89">
        <param key="capacity" value="9800.00"/>
    </edge>
    <edge id="1017" from="1421" to="1454" priority="-1" numLanes="1" speed="8.33">
        <param key="capacity" value="7000.00"/>
    </edge>
    <edge id="10170" from="600254" to="600243" priority="-1" numLanes="1" speed="13.89">
        <param key="capacity" value="9800.00"/>
    </edge>
    <edge id="10171" from="600255" to="600265" priority="-1" numLanes="1" speed="13.89">
        <param key="capacity" value="9800.00"/>
    </edge>
    <edge id="10172" from="600265" to="600255" priority="-1" numLanes="1" speed="13.89">
        <param key="capacity" value="9800.00"/>
    </edge>
    <edge id="10173" from="600243" to="600265" priority="-1" numLanes="1" speed="19.44">
        <param key="capacity" value="9800.00"/>
    </edge>
    <edge id="10174" from="600265" to="600243" priority="-1" numLanes="1" speed="19.44">
        <param key="capacity" value="9800.00"/>
    </edge>