<?xml version="1.0" encoding="UTF-8"?>

<!-- generated on Wed Sep 25 09:47:40 2019 by Eclipse SUMO netconvert Version v1_3_1+0443-48309f7
<configuration xmlns:xsi="http://www.w3.org/2001/XMLSchema-instance" xsi:noNamespaceSchemaLocation="http://sumo.dlr.de/xsd/netconvertConfiguration.xsd">

    <input>
        <sumo-net-file value="Sumo_MATSim.net.xml"/>
    </input>

    <output>
        <plain-output-prefix value="plain"/>
    </output>

    <processing>
        <geometry.max-grade.fix value="false"/>
        <offset.disable-normalization value="true"/>
        <lefthand value="false"/>
    </processing>

    <junctions>
        <no-turnarounds value="true"/>
        <junctions.corner-detail value="5"/>
        <junctions.limit-turn-speed value="5.5"/>
        <rectangular-lane-cut value="false"/>
    </junctions>

    <pedestrian>
        <walkingareas value="false"/>
    </pedestrian>

</configuration>
-->

<connections version="1.3" xmlns:xsi="http://www.w3.org/2001/XMLSchema-instance" xsi:noNamespaceSchemaLocation="http://sumo.dlr.de/xsd/connections_file.xsd">
    <connection from="1" to="28543" fromLane="0" toLane="0"/>
    <connection from="1" to="28538" fromLane="0" toLane="0"/>
    <connection from="1" to="2" fromLane="0" toLane="0"/>

    <connection from="10" to="11" fromLane="0" toLane="0"/>
    <connection from="10" to="17" fromLane="0" toLane="0"/>
    <connection from="10" to="9" fromLane="0" toLane="0"/>

    <connection from="100" to="82" fromLane="0" toLane="0"/>

    <connection from="1000" to="146" fromLane="0" toLane="0"/>

    <connection from="10000" to="10023" fromLane="0" toLane="0"/>
    <connection from="10000" to="10001" fromLane="0" toLane="0"/>
    <connection from="10000" to="9999" fromLane="0" toLane="0"/>

    <connection from="10001" to="26385" fromLane="0" toLane="0"/>

    <connection from="10002" to="9999" fromLane="0" toLane="0"/>
    <connection from="10002" to="10023" fromLane="0" toLane="0"/>
    <connection from="10002" to="10001" fromLane="0" toLane="0"/>

    <connection from="10003" to="10006" fromLane="0" toLane="0"/>

    <connection from="10004" to="10007" fromLane="0" toLane="0"/>

    <connection from="10005" to="10004" fromLane="0" toLane="0"/>

    <connection from="10006" to="10263" fromLane="0" toLane="0"/>

    <connection from="10007" to="26389" fromLane="0" toLane="0"/>

    <connection from="10008" to="10003" fromLane="0" toLane="0"/>

    <connection from="10009" to="26464" fromLane="0" toLane="0"/>
    <connection from="10009" to="26394" fromLane="0" toLane="0"/>
    <connection from="10009" to="10010" fromLane="0" toLane="0"/>

    <connection from="1001" to="990" fromLane="0" toLane="0"/>

    <connection from="10010" to="10159" fromLane="0" toLane="0"/>
    <connection from="10010" to="10013" fromLane="0" toLane="0"/>
    <connection from="10010" to="10009" fromLane="0" toLane="0"/>

    <connection from="10011" to="10014" fromLane="0" toLane="0"/>

    <connection from="10012" to="9947" fromLane="0" toLane="0"/>
    <connection from="10012" to="10271" fromLane="0" toLane="0"/>
    <connection from="10012" to="10011" fromLane="0" toLane="0"/>

    <connection from="10013" to="10012" fromLane="0" toLane="0"/>

    <connection from="10014" to="10009" fromLane="0" toLane="0"/>
    <connection from="10014" to="10159" fromLane="0" toLane="0"/>
    <connection from="10014" to="10013" fromLane="0" toLane="0"/>

    <connection from="10015" to="9934" fromLane="0" toLane="0"/>
    <connection from="10015" to="10244" fromLane="0" toLane="0"/>
    <connection from="10015" to="10016" fromLane="0" toLane="0"/>

    <connection from="10016" to="10018" fromLane="0" toLane="0"/>

    <connection from="10017" to="10015" fromLane="0" toLane="0"/>

    <connection from="10018" to="10387" fromLane="0" toLane="0"/>

    <connection from="10019" to="10021" fromLane="0" toLane="0"/>

    <connection from="1002" to="1000" fromLane="0" toLane="0"/>
    <connection from="1002" to="1029" fromLane="0" toLane="0"/>
    <connection from="1002" to="1003" fromLane="0" toLane="0"/>
    <connection from="1002" to="1001" fromLane="0" toLane="0"/>

    <connection from="10020" to="10557" fromLane="0" toLane="0"/>
    <connection from="10020" to="10197" fromLane="0" toLane="0"/>
    <connection from="10020" to="10351" fromLane="0" toLane="0"/>
    <connection from="10020" to="10019" fromLane="0" toLane="0"/>

    <connection from="10021" to="10354" fromLane="0" toLane="0"/>

    <connection from="10022" to="10020" fromLane="0" toLane="0"/>

    <connection from="10023" to="10025" fromLane="0" toLane="0"/>

    <connection from="10024" to="10001" fromLane="0" toLane="0"/>
    <connection from="10024" to="9999" fromLane="0" toLane="0"/>
    <connection from="10024" to="10023" fromLane="0" toLane="0"/>

    <connection from="10025" to="10028" fromLane="0" toLane="0"/>

    <connection from="10026" to="10024" fromLane="0" toLane="0"/>

    <connection from="10027" to="10026" fromLane="0" toLane="0"/>

    <connection from="10028" to="10184" fromLane="0" toLane="0"/>
    <connection from="10028" to="10054" fromLane="0" toLane="0"/>
    <connection from="10028" to="10027" fromLane="0" toLane="0"/>

    <connection from="10029" to="10256" fromLane="0" toLane="0"/>

    <connection from="1003" to="1045" fromLane="0" toLane="0"/>

    <connection from="10030" to="10165" fromLane="0" toLane="0"/>

    <connection from="10031" to="10034" fromLane="0" toLane="0"/>

    <connection from="10032" to="10161" fromLane="0" toLane="0"/>

    <connection from="10033" to="10032" fromLane="0" toLane="0"/>

    <connection from="10034" to="9714" fromLane="0" toLane="0"/>
    <connection from="10034" to="9715" fromLane="0" toLane="0"/>
    <connection from="10034" to="10033" fromLane="0" toLane="0"/>

    <connection from="10035" to="15107" fromLane="0" toLane="0"/>

    <connection from="10036" to="10342" fromLane="0" toLane="0"/>
    <connection from="10036" to="10037" fromLane="0" toLane="0"/>
    <connection from="10036" to="9930" fromLane="0" toLane="0"/>
    <connection from="10036" to="10035" fromLane="0" toLane="0"/>

    <connection from="10037" to="10041" fromLane="0" toLane="0"/>

    <connection from="10038" to="9930" fromLane="0" toLane="0"/>
    <connection from="10038" to="10035" fromLane="0" toLane="0"/>
    <connection from="10038" to="10342" fromLane="0" toLane="0"/>
    <connection from="10038" to="10037" fromLane="0" toLane="0"/>

    <connection from="10039" to="10043" fromLane="0" toLane="0"/>

    <connection from="1004" to="1001" fromLane="0" toLane="0"/>
    <connection from="1004" to="1000" fromLane="0" toLane="0"/>
    <connection from="1004" to="1029" fromLane="0" toLane="0"/>
    <connection from="1004" to="1003" fromLane="0" toLane="0"/>

    <connection from="10040" to="10363" fromLane="0" toLane="0"/>

    <connection from="10041" to="10044" fromLane="0" toLane="0"/>

    <connection from="10042" to="10038" fromLane="0" toLane="0"/>

    <connection from="10043" to="10042" fromLane="0" toLane="0"/>

    <connection from="10044" to="10040" fromLane="0" toLane="0"/>

    <connection from="10045" to="10048" fromLane="0" toLane="0"/>

    <connection from="10046" to="10045" fromLane="0" toLane="0"/>

    <connection from="10047" to="10046" fromLane="0" toLane="0"/>

    <connection from="10048" to="9704" fromLane="0" toLane="0"/>
    <connection from="10048" to="10430" fromLane="0" toLane="0"/>
    <connection from="10048" to="10047" fromLane="0" toLane="0"/>

    <connection from="10049" to="10376" fromLane="0" toLane="0"/>

    <connection from="1005" to="1012" fromLane="0" toLane="0"/>
    <connection from="1005" to="1526" fromLane="0" toLane="1"/>
    <connection from="1005" to="1006" fromLane="0" toLane="0"/>

    <connection from="10050" to="9790" fromLane="0" toLane="0"/>
    <connection from="10050" to="10213" fromLane="0" toLane="0"/>
    <connection from="10050" to="10049" fromLane="0" toLane="0"/>

    <connection from="10051" to="9921" fromLane="0" toLane="0"/>
    <connection from="10051" to="9926" fromLane="0" toLane="0"/>
    <connection from="10051" to="10052" fromLane="0" toLane="0"/>

    <connection from="10052" to="10051" fromLane="0" toLane="0"/>

    <connection from="10053" to="10027" fromLane="0" toLane="0"/>
    <connection from="10053" to="10184" fromLane="0" toLane="0"/>
    <connection from="10053" to="10054" fromLane="0" toLane="0"/>

    <connection from="10054" to="16223" fromLane="0" toLane="0"/>

    <connection from="10055" to="15115" fromLane="0" toLane="0"/>

    <connection from="10056" to="9972" fromLane="0" toLane="0"/>
    <connection from="10056" to="9966" fromLane="0" toLane="0"/>
    <connection from="10056" to="10055" fromLane="0" toLane="0"/>

    <connection from="10057" to="9838" fromLane="0" toLane="0"/>
    <connection from="10057" to="9844" fromLane="0" toLane="0"/>
    <connection from="10057" to="10058" fromLane="0" toLane="0"/>

    <connection from="10058" to="10062" fromLane="0" toLane="0"/>
    <connection from="10058" to="10077" fromLane="0" toLane="0"/>
    <connection from="10058" to="10057" fromLane="0" toLane="0"/>

    <connection from="10059" to="10595" fromLane="0" toLane="0"/>
    <connection from="10059" to="10610" fromLane="0" toLane="0"/>
    <connection from="10059" to="10060" fromLane="0" toLane="0"/>

    <connection from="1006" to="1007" fromLane="0" toLane="0"/>

    <connection from="10060" to="10605" fromLane="0" toLane="0"/>
    <connection from="10060" to="10433" fromLane="0" toLane="0"/>
    <connection from="10060" to="10059" fromLane="0" toLane="0"/>

    <connection from="10061" to="10077" fromLane="0" toLane="0"/>
    <connection from="10061" to="10057" fromLane="0" toLane="0"/>
    <connection from="10061" to="10062" fromLane="0" toLane="0"/>

    <connection from="10062" to="10063" fromLane="0" toLane="0"/>

    <connection from="10063" to="10315" fromLane="0" toLane="0"/>
    <connection from="10063" to="9894" fromLane="0" toLane="0"/>
    <connection from="10063" to="10064" fromLane="0" toLane="0"/>

    <connection from="10064" to="10061" fromLane="0" toLane="0"/>

    <connection from="10065" to="9746" fromLane="0" toLane="0"/>
    <connection from="10065" to="9744" fromLane="0" toLane="0"/>
    <connection from="10065" to="10066" fromLane="0" toLane="0"/>

    <connection from="10066" to="15235" fromLane="0" toLane="0"/>

    <connection from="10067" to="10072" fromLane="0" toLane="0"/>

    <connection from="10068" to="10069" fromLane="0" toLane="0"/>

    <connection from="10069" to="10540" fromLane="0" toLane="0"/>

    <connection from="1007" to="992" fromLane="0" toLane="0"/>

    <connection from="10070" to="10067" fromLane="0" toLane="0"/>

    <connection from="10071" to="10068" fromLane="0" toLane="0"/>

    <connection from="10072" to="10074" fromLane="0" toLane="0"/>
    <connection from="10072" to="10079" fromLane="0" toLane="0"/>
    <connection from="10072" to="10071" fromLane="0" toLane="0"/>

    <connection from="10073" to="10079" fromLane="0" toLane="0"/>
    <connection from="10073" to="10071" fromLane="0" toLane="0"/>
    <connection from="10073" to="10074" fromLane="0" toLane="0"/>

    <connection from="10074" to="10473" fromLane="0" toLane="0"/>
    <connection from="10074" to="10535" fromLane="0" toLane="0"/>
    <connection from="10074" to="10073" fromLane="0" toLane="0"/>

    <connection from="10075" to="10338" fromLane="0" toLane="0"/>
    <connection from="10075" to="10336" fromLane="0" toLane="0"/>
    <connection from="10075" to="10076" fromLane="0" toLane="0"/>

    <connection from="10076" to="15477" fromLane="0" toLane="0"/>

    <connection from="10077" to="9834" fromLane="0" toLane="0"/>
    <connection from="10077" to="9840" fromLane="0" toLane="0"/>
    <connection from="10077" to="10078" fromLane="0" toLane="0"/>

    <connection from="10078" to="10057" fromLane="0" toLane="0"/>
    <connection from="10078" to="10062" fromLane="0" toLane="0"/>
    <connection from="10078" to="10077" fromLane="0" toLane="0"/>

    <connection from="10079" to="10538" fromLane="0" toLane="0"/>

    <connection from="1008" to="1005" fromLane="0" toLane="0"/>

    <connection from="10080" to="10071" fromLane="0" toLane="0"/>
    <connection from="10080" to="10074" fromLane="0" toLane="0"/>
    <connection from="10080" to="10079" fromLane="0" toLane="0"/>

    <connection from="10081" to="10537" fromLane="0" toLane="0"/>

    <connection from="10082" to="6704" fromLane="0" toLane="0"/>
    <connection from="10082" to="6288" fromLane="0" toLane="1"/>
    <connection from="10082" to="6386" fromLane="0" toLane="1"/>
    <connection from="10082" to="10081" fromLane="0" toLane="0"/>

    <connection from="10083" to="10328" fromLane="0" toLane="0"/>

    <connection from="10084" to="10092" fromLane="0" toLane="0"/>
    <connection from="10084" to="10085" fromLane="0" toLane="0"/>
    <connection from="10084" to="10083" fromLane="0" toLane="0"/>

    <connection from="10085" to="28802" fromLane="0" toLane="0"/>

    <connection from="10086" to="10083" fromLane="0" toLane="0"/>
    <connection from="10086" to="10092" fromLane="0" toLane="0"/>
    <connection from="10086" to="10085" fromLane="0" toLane="0"/>

    <connection from="10087" to="10476" fromLane="0" toLane="0"/>

    <connection from="10088" to="9682" fromLane="0" toLane="0"/>
    <connection from="10088" to="28801" fromLane="0" toLane="0"/>
    <connection from="10088" to="9684" fromLane="0" toLane="0"/>
    <connection from="10088" to="10087" fromLane="0" toLane="0"/>

    <connection from="10089" to="6942" fromLane="0" toLane="0"/>

    <connection from="1009" to="1014" fromLane="0" toLane="0"/>
    <connection from="1009" to="1501" fromLane="0" toLane="0"/>
    <connection from="1009" to="1501" fromLane="1" toLane="1"/>

    <connection from="10090" to="10478" fromLane="0" toLane="0"/>

    <connection from="10091" to="10085" fromLane="0" toLane="0"/>
    <connection from="10091" to="10083" fromLane="0" toLane="0"/>
    <connection from="10091" to="10092" fromLane="0" toLane="0"/>

    <connection from="10092" to="10568" fromLane="0" toLane="0"/>
    <connection from="10092" to="28157" fromLane="0" toLane="0"/>
    <connection from="10092" to="10091" fromLane="0" toLane="0"/>

    <connection from="10093" to="10332" fromLane="0" toLane="0"/>

    <connection from="10094" to="10096" fromLane="0" toLane="0"/>

    <connection from="10095" to="10093" fromLane="0" toLane="0"/>

    <connection from="10096" to="9764" fromLane="0" toLane="0"/>
    <connection from="10096" to="10330" fromLane="0" toLane="0"/>
    <connection from="10096" to="10095" fromLane="0" toLane="0"/>

    <connection from="10097" to="10099" fromLane="0" toLane="0"/>

    <connection from="10098" to="9718" fromLane="0" toLane="0"/>
    <connection from="10098" to="9721" fromLane="0" toLane="0"/>
    <connection from="10098" to="10097" fromLane="0" toLane="0"/>

    <connection from="10099" to="10325" fromLane="0" toLane="0"/>

    <connection from="101" to="121" fromLane="0" toLane="0"/>
    <connection from="101" to="108" fromLane="0" toLane="0"/>
    <connection from="101" to="102" fromLane="0" toLane="0"/>

    <connection from="10100" to="10098" fromLane="0" toLane="0"/>

    <connection from="10101" to="16632" fromLane="0" toLane="0"/>

    <connection from="10102" to="10326" fromLane="0" toLane="0"/>

    <connection from="10103" to="10108" fromLane="0" toLane="0"/>

    <connection from="10104" to="10106" fromLane="0" toLane="0"/>

    <connection from="10105" to="10103" fromLane="0" toLane="0"/>

    <connection from="10106" to="9690" fromLane="0" toLane="0"/>
    <connection from="10106" to="10531" fromLane="0" toLane="0"/>
    <connection from="10106" to="10105" fromLane="0" toLane="0"/>

    <connection from="10107" to="10104" fromLane="0" toLane="0"/>

    <connection from="10108" to="9856" fromLane="0" toLane="0"/>
    <connection from="10108" to="9858" fromLane="0" toLane="0"/>
    <connection from="10108" to="10107" fromLane="0" toLane="0"/>

    <connection from="10109" to="10445" fromLane="0" toLane="0"/>

    <connection from="1011" to="1526" fromLane="0" toLane="0"/>
    <connection from="1011" to="1006" fromLane="0" toLane="0"/>
    <connection from="1011" to="1012" fromLane="0" toLane="0"/>

    <connection from="10110" to="9689" fromLane="0" toLane="0"/>
    <connection from="10110" to="9692" fromLane="0" toLane="0"/>
    <connection from="10110" to="10109" fromLane="0" toLane="0"/>

    <connection from="10111" to="10287" fromLane="0" toLane="0"/>

    <connection from="10112" to="10528" fromLane="0" toLane="0"/>

    <connection from="10113" to="10286" fromLane="0" toLane="0"/>

    <connection from="10114" to="10288" fromLane="0" toLane="0"/>

    <connection from="10115" to="10119" fromLane="0" toLane="0"/>

    <connection from="10116" to="10526" fromLane="0" toLane="0"/>
    <connection from="10116" to="9904" fromLane="0" toLane="0"/>
    <connection from="10116" to="10115" fromLane="0" toLane="0"/>

    <connection from="10117" to="10120" fromLane="0" toLane="0"/>

    <connection from="10118" to="10292" fromLane="0" toLane="0"/>
    <connection from="10118" to="10293" fromLane="0" toLane="0"/>
    <connection from="10118" to="10117" fromLane="0" toLane="0"/>

    <connection from="10119" to="10118" fromLane="0" toLane="0"/>

    <connection from="1012" to="4151" fromLane="0" toLane="0"/>
    <connection from="1012" to="1055" fromLane="0" toLane="0"/>
    <connection from="1012" to="1011" fromLane="0" toLane="0"/>

    <connection from="10120" to="10116" fromLane="0" toLane="0"/>

    <connection from="10121" to="10284" fromLane="0" toLane="0"/>

    <connection from="10122" to="10489" fromLane="0" toLane="0"/>
    <connection from="10122" to="9733" fromLane="0" toLane="0"/>
    <connection from="10122" to="10121" fromLane="0" toLane="0"/>

    <connection from="10123" to="10637" fromLane="0" toLane="0"/>

    <connection from="10124" to="10125" fromLane="0" toLane="0"/>

    <connection from="10125" to="16592" fromLane="0" toLane="0"/>

    <connection from="10126" to="10123" fromLane="0" toLane="0"/>

    <connection from="10127" to="10132" fromLane="0" toLane="0"/>

    <connection from="10128" to="10130" fromLane="0" toLane="0"/>

    <connection from="10129" to="10127" fromLane="0" toLane="0"/>

    <connection from="10130" to="10289" fromLane="0" toLane="0"/>
    <connection from="10130" to="9798" fromLane="0" toLane="0"/>
    <connection from="10130" to="10129" fromLane="0" toLane="0"/>

    <connection from="10131" to="10128" fromLane="0" toLane="0"/>

    <connection from="10132" to="9912" fromLane="0" toLane="0"/>
    <connection from="10132" to="9910" fromLane="0" toLane="0"/>
    <connection from="10132" to="10131" fromLane="0" toLane="0"/>

    <connection from="10133" to="10302" fromLane="0" toLane="0"/>

    <connection from="10134" to="9829" fromLane="0" toLane="0"/>
    <connection from="10134" to="10137" fromLane="0" toLane="0"/>
    <connection from="10134" to="9828" fromLane="0" toLane="0"/>
    <connection from="10134" to="10133" fromLane="0" toLane="0"/>

    <connection from="10135" to="10138" fromLane="0" toLane="0"/>

    <connection from="10136" to="10175" fromLane="0" toLane="0"/>

    <connection from="10137" to="10136" fromLane="0" toLane="0"/>

    <connection from="10138" to="9828" fromLane="0" toLane="0"/>
    <connection from="10138" to="10133" fromLane="0" toLane="0"/>
    <connection from="10138" to="9829" fromLane="0" toLane="0"/>
    <connection from="10138" to="10137" fromLane="0" toLane="0"/>

    <connection from="10139" to="10502" fromLane="0" toLane="0"/>

    <connection from="1014" to="1619" fromLane="0" toLane="0"/>
    <connection from="1014" to="1621" fromLane="0" toLane="1"/>
    <connection from="1014" to="1621" fromLane="0" toLane="2"/>

    <connection from="10140" to="9738" fromLane="0" toLane="0"/>
    <connection from="10140" to="9736" fromLane="0" toLane="0"/>
    <connection from="10140" to="10139" fromLane="0" toLane="0"/>

    <connection from="10141" to="10144" fromLane="0" toLane="0"/>

    <connection from="10142" to="9874" fromLane="0" toLane="0"/>
    <connection from="10142" to="9679" fromLane="0" toLane="0"/>
    <connection from="10142" to="10141" fromLane="0" toLane="0"/>

    <connection from="10143" to="10142" fromLane="0" toLane="0"/>

    <connection from="10144" to="9678" fromLane="0" toLane="0"/>
    <connection from="10144" to="9830" fromLane="0" toLane="0"/>
    <connection from="10144" to="10143" fromLane="0" toLane="0"/>

    <connection from="10145" to="10147" fromLane="0" toLane="0"/>

    <connection from="10146" to="9852" fromLane="0" toLane="0"/>
    <connection from="10146" to="9850" fromLane="0" toLane="0"/>
    <connection from="10146" to="10145" fromLane="0" toLane="0"/>

    <connection from="10147" to="10361" fromLane="0" toLane="0"/>

    <connection from="10148" to="10146" fromLane="0" toLane="0"/>

    <connection from="10149" to="10154" fromLane="0" toLane="0"/>

    <connection from="1015" to="1166" fromLane="0" toLane="0"/>

    <connection from="10150" to="10152" fromLane="0" toLane="0"/>
    <connection from="10150" to="10583" fromLane="0" toLane="0"/>
    <connection from="10150" to="10149" fromLane="0" toLane="0"/>

    <connection from="10151" to="10583" fromLane="0" toLane="0"/>
    <connection from="10151" to="10149" fromLane="0" toLane="0"/>
    <connection from="10151" to="10152" fromLane="0" toLane="0"/>

    <connection from="10152" to="7312" fromLane="0" toLane="0"/>

    <connection from="10153" to="10150" fromLane="0" toLane="0"/>

    <connection from="10154" to="9876" fromLane="0" toLane="0"/>
    <connection from="10154" to="9878" fromLane="0" toLane="0"/>
    <connection from="10154" to="10153" fromLane="0" toLane="0"/>

    <connection from="10155" to="10497" fromLane="0" toLane="0"/>

    <connection from="10156" to="10274" fromLane="0" toLane="0"/>

    <connection from="10157" to="10158" fromLane="0" toLane="0"/>

    <connection from="10158" to="10523" fromLane="0" toLane="0"/>

    <connection from="10159" to="10524" fromLane="0" toLane="0"/>

    <connection from="10160" to="10013" fromLane="0" toLane="0"/>
    <connection from="10160" to="10009" fromLane="0" toLane="0"/>
    <connection from="10160" to="10159" fromLane="0" toLane="0"/>

    <connection from="10161" to="10164" fromLane="0" toLane="0"/>

    <connection from="10162" to="10031" fromLane="0" toLane="0"/>

    <connection from="10163" to="10162" fromLane="0" toLane="0"/>

    <connection from="10164" to="10349" fromLane="0" toLane="0"/>
    <connection from="10164" to="9817" fromLane="0" toLane="0"/>
    <connection from="10164" to="10163" fromLane="0" toLane="0"/>

    <connection from="10165" to="10247" fromLane="0" toLane="0"/>

    <connection from="10166" to="10029" fromLane="0" toLane="0"/>

    <connection from="10167" to="10632" fromLane="0" toLane="0"/>
    <connection from="10167" to="10635" fromLane="0" toLane="0"/>
    <connection from="10167" to="10168" fromLane="0" toLane="0"/>

    <connection from="10168" to="9957" fromLane="0" toLane="0"/>
    <connection from="10168" to="10352" fromLane="0" toLane="0"/>
    <connection from="10168" to="10167" fromLane="0" toLane="0"/>

    <connection from="10169" to="10534" fromLane="0" toLane="0"/>
    <connection from="10169" to="9978" fromLane="0" toLane="0"/>
    <connection from="10169" to="10364" fromLane="0" toLane="0"/>
    <connection from="10169" to="10170" fromLane="0" toLane="0"/>

    <connection from="1017" to="736" fromLane="0" toLane="0"/>
    <connection from="1017" to="1063" fromLane="0" toLane="0"/>
    <connection from="1017" to="1018" fromLane="0" toLane="0"/>

    <connection from="10170" to="10173" fromLane="0" toLane="0"/>

    <connection from="10171" to="10174" fromLane="0" toLane="0"/>

    <connection from="10172" to="9700" fromLane="0" toLane="0"/>
    <connection from="10172" to="9698" fromLane="0" toLane="0"/>
    <connection from="10172" to="10171" fromLane="0" toLane="0"/>

    <connection from="10173" to="10172" fromLane="0" toLane="0"/>

    <connection from="10174" to="10169" fromLane="0" toLane="0"/>

    <connection from="10175" to="17159" fromLane="0" toLane="0"/>

    <connection from="10176" to="10135" fromLane="0" toLane="0"/>

    <connection from="10177" to="10609" fromLane="0" toLane="0"/>
    <connection from="10177" to="10191" fromLane="0" toLane="0"/>
    <connection from="10177" to="10178" fromLane="1" toLane="1"/>

    <connection from="10178" to="10545" fromLane="0" toLane="0"/>
    <connection from="10178" to="10180" fromLane="0" toLane="0"/>
    <connection from="10178" to="10180" fromLane="1" toLane="1"/>
    <connection from="10178" to="10177" fromLane="1" toLane="1"/>

    <connection from="10179" to="10177" fromLane="0" toLane="0"/>
    <connection from="10179" to="10177" fromLane="1" toLane="1"/>
    <connection from="10179" to="10545" fromLane="1" toLane="0"/>
    <connection from="10179" to="10180" fromLane="1" toLane="1"/>

    <connection from="1018" to="1021" fromLane="0" toLane="0"/>

    <connection from="10180" to="9988" fromLane="0" toLane="0"/>
    <connection from="10180" to="10181" fromLane="0" toLane="0"/>
    <connection from="10180" to="10181" fromLane="1" toLane="1"/>
    <connection from="10180" to="10179" fromLane="1" toLane="1"/>

    <connection from="10181" to="10317" fromLane="0" toLane="0"/>
    <connection from="10181" to="10599" fromLane="0" toLane="0"/>
    <connection from="10181" to="10182" fromLane="1" toLane="1"/>

    <connection from="10182" to="10179" fromLane="0" toLane="0"/>
    <connection from="10182" to="10179" fromLane="1" toLane="1"/>
    <connection from="10182" to="9988" fromLane="1" toLane="0"/>
    <connection from="10182" to="10181" fromLane="1" toLane="1"/>

    <connection from="10183" to="10054" fromLane="0" toLane="0"/>
    <connection from="10183" to="10027" fromLane="0" toLane="0"/>
    <connection from="10183" to="10184" fromLane="0" toLane="0"/>

    <connection from="10184" to="10520" fromLane="0" toLane="0"/>
    <connection from="10184" to="9956" fromLane="0" toLane="0"/>
    <connection from="10184" to="10183" fromLane="0" toLane="0"/>

    <connection from="10185" to="10188" fromLane="0" toLane="0"/>

    <connection from="10186" to="10189" fromLane="0" toLane="0"/>

    <connection from="10187" to="10186" fromLane="0" toLane="0"/>

    <connection from="10188" to="9745" fromLane="0" toLane="0"/>
    <connection from="10188" to="9750" fromLane="0" toLane="0"/>
    <connection from="10188" to="10187" fromLane="0" toLane="0"/>

    <connection from="10189" to="15487" fromLane="0" toLane="0"/>
    <connection from="10189" to="15233" fromLane="0" toLane="0"/>
    <connection from="10189" to="10190" fromLane="0" toLane="0"/>

    <connection from="1019" to="1022" fromLane="0" toLane="0"/>
    <connection from="1019" to="1023" fromLane="0" toLane="0"/>
    <connection from="1019" to="1023" fromLane="1" toLane="1"/>
    <connection from="1019" to="1020" fromLane="1" toLane="1"/>

    <connection from="10190" to="10185" fromLane="0" toLane="0"/>

    <connection from="10191" to="10596" fromLane="0" toLane="0"/>
    <connection from="10191" to="10608" fromLane="0" toLane="0"/>
    <connection from="10191" to="10192" fromLane="0" toLane="0"/>

    <connection from="10192" to="10178" fromLane="0" toLane="0"/>
    <connection from="10192" to="10609" fromLane="0" toLane="0"/>
    <connection from="10192" to="10191" fromLane="0" toLane="0"/>

    <connection from="10193" to="10617" fromLane="0" toLane="0"/>

    <connection from="10194" to="10607" fromLane="0" toLane="0"/>
    <connection from="10194" to="10518" fromLane="0" toLane="0"/>
    <connection from="10194" to="10193" fromLane="0" toLane="0"/>

    <connection from="10195" to="10294" fromLane="0" toLane="0"/>

    <connection from="10196" to="10298" fromLane="0" toLane="0"/>
    <connection from="10196" to="10295" fromLane="0" toLane="0"/>
    <connection from="10196" to="10299" fromLane="0" toLane="0"/>
    <connection from="10196" to="10195" fromLane="0" toLane="0"/>

    <connection from="10197" to="26990" fromLane="0" toLane="0"/>

    <connection from="10198" to="10351" fromLane="0" toLane="0"/>
    <connection from="10198" to="10019" fromLane="0" toLane="0"/>
    <connection from="10198" to="10557" fromLane="0" toLane="0"/>
    <connection from="10198" to="10197" fromLane="0" toLane="0"/>

    <connection from="10199" to="10399" fromLane="0" toLane="0"/>

    <connection from="102" to="6989" fromLane="0" toLane="0"/>

    <connection from="1020" to="634" fromLane="0" toLane="0"/>
    <connection from="1020" to="634" fromLane="1" toLane="1"/>
    <connection from="1020" to="694" fromLane="1" toLane="0"/>
    <connection from="1020" to="1019" fromLane="1" toLane="1"/>

    <connection from="10200" to="10203" fromLane="0" toLane="0"/>
    <connection from="10200" to="10201" fromLane="0" toLane="0"/>
    <connection from="10200" to="10199" fromLane="0" toLane="0"/>

    <connection from="10201" to="9785" fromLane="0" toLane="0"/>
    <connection from="10201" to="9783" fromLane="0" toLane="0"/>
    <connection from="10201" to="10202" fromLane="0" toLane="0"/>

    <connection from="10202" to="10199" fromLane="0" toLane="0"/>
    <connection from="10202" to="10203" fromLane="0" toLane="0"/>
    <connection from="10202" to="10201" fromLane="0" toLane="0"/>

    <connection from="10203" to="10392" fromLane="0" toLane="0"/>

    <connection from="10204" to="10201" fromLane="0" toLane="0"/>
    <connection from="10204" to="10199" fromLane="0" toLane="0"/>
    <connection from="10204" to="10203" fromLane="0" toLane="0"/>

    <connection from="10205" to="9786" fromLane="0" toLane="0"/>