<?xml version="1.0" encoding="UTF-8"?>
<!-- generated on 2019-09-18 11:28:02.190660 by $Id$
  options: -r vehroutes.xml -o vehroutesWithStops.xml <doubleminus>duration 1800 -n osm.net.xml
-->
<routes xmlns:xsi="http://www.w3.org/2001/XMLSchema-instance" xsi:noNamespaceSchemaLocation="http://sumo.dlr.de/xsd/routes_file.xsd">
<vehicle arrival="279.00" depart="0.00" departLane="0" id="bike0" type="bike_bicycle">
    <route edges="25408846 -25408839#1 -25408839#0 151237804#3 151237831#14 151237831#15 151237831#16 151237817#2 151237817#3 151237817#4 151237803#3 193875628#0 193875628#1 193875628#2 193875628#3 148614183#0 148614183#1 148614183#2 148614183#3 148614183#4 148614183#5 148614183#6 148614183#7 -148614183#7"/>
    <stop duration="1800" lane="-148614183#7_1"/>
</vehicle>
<vehicle arrival="4875.00" depart="0.00" id="ship0" type="ship_ship">
    <route edges="4446691 158855766 -158855766 -4446691"/>
</vehicle>
<vehicle arrival="169.00" depart="0.00" departLane="0" id="tram0" type="tram_tram">
    <route edges="179081032#1 181676059#0 181676059#1 144077980#0 144077980#1 144077980#2 144077980#3 144077980#4 144077980#5 173640266 173640269"/>
</vehicle>
<vehicle arrival="368.00" depart="2.00" departLane="1" id="veh2" type="veh_passenger">
    <route edges="266454540#6 -266454540#6 -154754266 283006412#5 283006412#6 283006412#7 520100576#0 520100576#1 594582762 594582763 9628124#0 9628124#1 9628124#2 -43167434#4 -43167434#1 -43167434#0 -328399245 -37849738#6 -37849738#5 -37849738#4 -37849738#3 -37849738#2 -37849738#1 -37849738#0 -43169787#1 -43169787#0 -328400400#2 -328400400#1 -328400400#0 -37849716#1 -37849716#0 -217390621 -26192423 -586055414 586676243 35403826 587695667#0 -587695669 -25799153#19 -25799153#18 -25799153#17 -25799153#16 -25799153#15 -25799153#14 -25799153#13 25799153#13"/>
    <stop duration="1800" lane="25799153#13_0"/>
</vehicle>
<vehicle arrival="197.00" depart="3.00" departLane="2" id="veh3" type="veh_passenger">
    <route edges="43167434#0 43167434#1 43167434#2 -279808663#3 -279808663#0 -432116461#2 -432116461#1 -432116461#0 -143742580#2 -171257628#1 -171257628#0"/>
    <stop duration="1800" lane="-171257628#0_0"/>
</vehicle>
<vehicle arrival="301.00" depart="5.00" departLane="1" id="veh4" type="veh_passenger">
    <route edges="-589852136#1 -589852136#0 217390581#1 25799283#0 25799283#1 25332283#0 25332283#1 25332283#2 25332283#3 25332283#4 -31091036#6 -31091036#5 -31091036#4 -31091036#3 -31091036#2 -31091036#1 -31091036#0 -193875628#3 -193875628#2 -193875628#1 -193875628#0 -283006414#3 -283006414#2 -283006414#1 -283006414#0 25307868#0 25307868#1 25307868#2 25307868#3 25307868#4 -43167434#4 -43167434#1 -43167434#0 -456662393 -283006421#2 -283006421#1 -283006421#0 -456662392#1 -456662392#0 -150937132#0 31306520#0 150937047#3 150937047#4 150937047#5 -150937047#5"/>
    <stop duration="1800" lane="-150937047#5_1"/>
</vehicle>
<vehicle arrival="393.00" depart="7.00" departLane="1" id="veh6" type="veh_passenger">
    <route edges="-148614183#8 -148614183#7 25332283#0 25332283#1 25332283#2 25332283#3 25332283#4 -31091036#6 -31091036#5 -31091036#4 -31091036#3 -31091036#2 -31091036#1 -31091036#0 -193875628#3 -193875628#2 -193875628#1 -193875628#0 -283006414#3 -283006414#2 -283006414#1 -283006414#0 25307868#0 25307868#1 25307868#2 25307868#3 25307868#4 -43167434#4 -43167434#1 -43167434#0 -328399245 -37849738#6 -37849738#5 -37849738#4 -37849738#3 -37849738#2 -37849738#1 -37849738#0 -43169787#1 -43169787#0 -328400400#2 -328400400#1 -328400400#0 -37849716#1 -37849716#0 -217390621 -26192423 -586055414 586676243 35403826 587695667#0 -587695669 -25799153#19 -25799153#18"/>
    <stop duration="1800" lane="-25799153#18_0"/>
</vehicle>
<vehicle arrival="146.00" depart="9.00" departLane="1" id="veh7" type="veh_passenger">
    <route edges="25194206#2 -25194206#2 -25194206#1 -25194206#0 150937060 723757293 -30689380#1 -30689380#0 283006412#0 283006412#1 283006412#2 283006412#3 283006412#4 154754266"/>
    <stop duration="1800" lane="154754266_1"/>
</vehicle>
<vehicle arrival="149.00" depart="11.00" departLane="1" id="veh9" type="veh_passenger">
    <route edges="328400400#0 328400400#1 328400400#2 43169787#0 43169787#1 37849738#0 37849738#1 37849738#2 37849738#3 37849738#4 37849738#5 37849738#6 328399245 43167434#0 43167434#1 43167434#2 -25307868#4 -25307868#3 -25307868#2 -25307868#1 -25307868#0 283006414#0 283006414#1 283006414#2 283006414#3 193875628#0 193875628#1 193875628#2 193875628#3 31091036#0 31091036#1 31091036#2 31091036#3 -148614177#2 -148614177#1"/>
    <stop duration="1800" lane="-148614177#1_1"/>
</vehicle>
<vehicle arrival="385.00" depart="14.00" departLane="0" id="veh11" type="veh_passenger">
    <route edges="-358701737 -43169788#2 -43169788#1 -43169788#0 -25798952#1 -25798952#0 328400400#1 328400400#2 43169787#0 43169787#1 37849738#0 37849738#1 37849738#2 37849738#3 37849738#4 37849738#5 37849738#6 328399245 43167434#0 43167434#1 43167434#2 -9628124#2 -9628124#1 -9628124#0 -594582763 -594582762 -520100576#1 -520100576#0 -283006412#7 -283006412#6 -283006412#5 -283006412#4 -283006412#3 -283006412#2 -283006412#1 -283006412#0 30689380#0 30689380#1 328253843#0 328253843#1 328253843#2 638460946 638460947#0 638460947#1 25307934#0 25000113#0 25000113#2 25000113#3 25000113#4 25000113#5 25000113#7 25000113#8 25000113#10 25000113#11 25000113#13 25000113#14 25000113#15 150937110#0 150937110#1 150937110#2 150937110#3 -25192964#2"/>
    <stop duration="1800" lane="-25192964#2_1"/>
</vehicle>
<vehicle arrival="1600.00" depart="15.00" id="pt_tram_88:0.0" type="pt_tram">
    <route edges="-298357088#0 -171091369#16 -171091369#15 -171091369#14 -171091369#13 -171091369#12 -171091369#11 -171091369#10 -171091369#9 -171091369#8 -171091369#7 -171091369#6 -171091369#5 -171091369#4 -171091369#3 -171091369#2 -171091369#1 -171091369#0 -298357088#17 -298357088#16 -298357088#15 -298357088#14 -298357088#13 -298357088#12 -298357088#11 -298357088#10 -298357088#9 -298357088#8 -298357088#7 -298357088#6 -298357088#5 -298357088#4 -298357088#3 -298357088#2 -298357088#1 -298357088#0 -171091369#16 -171091369#15 -171091369#14 -171091369#13 -171091369#12 -171091369#11 -171091369#10 551252076 298357088#7 298357088#8 298357088#9 298357088#10 298357088#11 298357088#12 298357088#13 298357088#14 298357088#15 298357088#16 298357088#17 171091369#0"/>
    <stop busStop="-3022831712" duration="30.00" until="206.00"/>
    <stop busStop="-3986514165" duration="30.00" until="293.00"/>
    <stop busStop="-253943361" duration="30.00" until="1022.00"/>
    <stop busStop="253943345" duration="30.00" until="1492.00"/>
    <stop busStop="253943340" duration="30.00" until="1599.00"/>
    <param key="completeness" value="0.25"/>
    <param key="name" value="Straßenbahnlinie 88"/>
</vehicle>
<vehicle arrival="510.00" depart="15.00" departLane="1" id="veh12" type="veh_passenger">
    <route edges="723757291#12 -723757291#12 -723757291#11 -723757291#10 151237803#0 151237803#1 151237803#2 151237803#3 -283006414#3 -283006414#2 -283006414#1 -283006414#0 25307868#0 25307868#1 25307868#2 25307868#3 25307868#4 -43167434#4 -43167434#1 -43167434#0 -328399245 -37849738#6 -37849738#5 -37849738#4 -37849738#3 -37849738#2 -37849738#1 -37849738#0 -43169787#1 -43169787#0 -328400400#2 -328400400#1 -328400400#0 -37849716#1 -37849716#0 -52710327#3 -52710327#2 -52710327#1 -52710327#0 -25374267 -23045996#3 -23045996#2 -23045996#0 25799153#0 25799153#1 25799153#2 25799153#3 25799153#5 25799153#6 25799153#8 35414071#0 35414071#1 -35403721#0 -35414070"/>
    <stop duration="1800" lane="-35414070_0"/>
</vehicle>
<vehicle arrival="740.00" depart="17.00" id="pt_tram_60:0.0" type="pt_tram">
    <route edges="385907618#0 385907618#1 -117702504 -288073825 -288073821 -288073818 288073800 25307907#0 25307907#1 93704163 30689379#0 30689379#1 107704595 107704578 177943463 25000120 180203313 173640272#0 173640272#1 144077985 173640268#0 173640268#1 173640266"/>
    <stop busStop="349055255" duration="30.00" until="49.00"/>
    <stop busStop="-1883472920" duration="30.00" until="126.00"/>
    <stop busStop="-3890748374" duration="30.00" until="183.00"/>
    <stop busStop="3890748385" duration="30.00" until="249.00"/>
    <stop busStop="3890748380" duration="30.00" until="316.00"/>
    <stop busStop="3890748371" duration="30.00" until="385.00"/>
    <stop busStop="1883458398" duration="30.00" until="439.00"/>
    <stop busStop="3890748363" duration="30.00" until="517.00"/>
    <stop busStop="1844135106" duration="30.00" until="589.00"/>
    <stop busStop="1844135182" duration="30.00" until="653.00"/>
    <stop busStop="1906474291" duration="30.00" until="734.00"/>
    <param key="completeness" value="0.32"/>
    <param key="name" value="Straßenbahnlinie 60: Friedrichshagen, Altes Wasserwerk => Johannisthal, Haeckelstraße"/>
</vehicle>
<vehicle arrival="597.00" depart="17.00" departLane="0" id="veh13" type="veh_passenger">
    <route edges="-174786229#4 31091054#2 31091054#3 31091054#4 31091054#5 505362194#0 505362194#1 724688436 143742580#0 143742580#1 143742580#2 432116461#0 432116461#1 432116461#2 432116461#3 279808663#1 -25307868#4 -25307868#3 -25307868#2 -25307868#1 -25307868#0 283006414#0 283006414#1 283006414#2 283006414#3 193875628#0 193875628#1 193875628#2 193875628#3 31091036#0 31091036#1 31091036#2 31091036#3 31091036#4 31091036#5 31091036#6 31091036#7 31091036#8 31091036#9 31091036#10 31091036#11 31091036#12 31091036#13 31091036#14 31091036#15 31091036#16 75252111#0 75252111#1 75252111#2 75252111#4 25000125#0 25000125#1 217386905 -217386905"/>
    <stop duration="1800" lane="-217386905_1"/>
</vehicle>
<vehicle arrival="339.00" depart="18.00" departLane="0" id="veh14" type="veh_passenger">
    <route edges="35403473#0 35403473#1 -23045995#1 23045996#2 23045996#3 23045996#4 52710327#0 52710327#1 52710327#2 52710327#3 37849716#0 37849716#1 328400400#0 328400400#1 328400400#2 43169787#0 43169787#1 37849738#0 37849738#1 37849738#2 37849738#3 37849738#4 37849738#5 37849738#6 328399245 43167434#0 43167434#1 43167434#2 -9628124#2 -9628124#1 -9628124#0 -594582763 -594582762 -520100576#1 -520100576#0 -283006412#7 -283006412#6 -283006412#5 -283006412#4 -283006412#3 -283006412#2 -283006412#1 -283006412#0 30689380#0 30689380#1 328253843#0 328253843#1 328253843#2 638460946 638460947#0 638460947#1 25307934#0 25000113#0 25000113#2 25000113#3 25000113#4 25000113#5"/>
    <stop duration="1800" lane="25000113#5_1"/>
</vehicle>
<vehicle arrival="192.00" depart="20.00" departLane="1" id="bike1" type="bike_bicycle">
    <route edges="-331318343#4 -331318343#3 -331318343#2 25016105 -25016105 331318343#2 331318343#3 331318343#4 682460125#0 682460125#1 682460125#2 -328253843#2 -328253843#1 -328253843#0 -30689380#1 -30689380#0 283006412#0 283006412#1 283006412#2 283006412#3 283006412#4 -283006412#4"/>
    <stop duration="1800" lane="-283006412#4_2"/>
</vehicle>
<vehicle arrival="68.00" depart="20.00" departLane="2" id="veh15" type="veh_passenger">
    <route edges="328253843#2 -328253843#2 -328253843#1 -328253843#0 -30689380#1 -30689380#0 283006412#0 283006412#1 283006412#2"/>
    <stop duration="1800" lane="283006412#2_2"/>
</vehicle>
<vehicle arrival="159.00" depart="20.00" departLane="1" id="veh16" type="veh_passenger">
    <route edges="151237817#0 151237817#1 151237817#2 151237817#3 151237817#4 151237803#3 193875628#0 193875628#1 193875628#2 193875628#3 31091036#0 31091036#1 31091036#2 31091036#3 31091036#4 31091036#5 31091036#6 31091036#7 31091036#8 31091036#9 31091036#10 31091036#11 31091036#12 31091036#13 31091036#14 31091036#15 31091036#16 75252111#0 75252111#1 75252111#2 75252111#4"/>
    <stop duration="1800" lane="75252111#4_2"/>
</vehicle>
<vehicle arrival="223.00" depart="22.00" departLane="1" id="veh17" type="veh_passenger">
    <route edges="-43169787#1 43169787#1 37849738#0 37849738#1 37849738#2 37849738#3 37849738#4 37849738#5 37849738#6 328399245 43167434#0 43167434#1 43167434#2 -25307868#4 -25307868#3 -25307868#2 -25307868#1 -25307868#0 283006414#0 283006414#1 283006414#2 283006414#3 193875628#0 193875628#1 193875628#2 193875628#3 31091036#0 31091036#1 31091036#2 31091036#3 31091036#4 31091036#5 31091036#6 31091036#7 31091036#8 31091036#9 31091036#10 31091036#11 31091036#12 31091036#13 31091036#14 31091036#15 31091036#16 75252111#0 75252111#1 75252111#2 75252111#4 173640273#0 173640273#1 173640273#2"/>
    <stop duration="1800" lane="173640273#2_2"/>
</vehicle>
<vehicle arrival="209.00" depart="26.00" departLane="0" id="veh20" type="veh_passenger">
    <route edges="-26489644#3 -26489644#2 -26489644#1 -26489644#0 -31091036#0 -193875628#3 -193875628#2 -193875628#1 -193875628#0 -283006414#3 -283006414#2 -283006414#1 -283006414#0 25307868#0 25307868#1 25307868#2 25307868#3 25307868#4 -43167434#4 -43167434#1 -43167434#0 -456662393 -283006421#2 -283006421#1 -283006421#0 -456662392#1 -456662392#0 -150937132#0 31306520#0 31306520#1 31306520#2 31306520#3 31306520#4 -31306520#4"/>
    <stop duration="1800" lane="-31306520#4_1"/>
</vehicle>
<vehicle arrival="126.00" depart="27.00" departLane="1" id="veh21" type="veh_passenger">
    <route edges="-151237831#0 -25000104#4 -25000104#3 -25000104#2 -410646532#1 -410646532#0 -331318342#8 26280362 -26280362"/>
    <stop duration="1800" lane="-26280362_1"/>
</vehicle>
<vehicle arrival="85.00" depart="28.00" departLane="1" id="veh22" type="veh_passenger">
    <route edges="-217386905 -25000125#1 -25000125#0 217386888#0 217386888#1 217386888#2 217386888#3 -31091036#16 -31091036#15 -31091036#14 -31091036#13 -31091036#12 -31091036#11 -31091036#10 -31091036#9"/>
    <stop duration="1800" lane="-31091036#9_0"/>
</vehicle>
<vehicle arrival="228.00" depart="30.00" departLane="0" id="veh23" type="veh_passenger">
    <route edges="25192963#7 25192963#8 25192963#9 25016103#3 25016103#4 25016103#5 25016103#6 25016103#7 25016103#8 25016103#9 25016103#10 25194873#2 25194873#3 25194874#0 426572490#4 426572490#5 -426572490#5"/>
    <stop duration="1800" lane="-426572490#5_1"/>
</vehicle>
<vehicle arrival="384.00" depart="31.00" departLane="1" id="veh24" type="veh_passenger">
    <route edges="-426572490#2 -426572490#1 -426572490#0 -150937052 520100576#0 520100576#1 594582762 594582763 9628124#0 9628124#1 9628124#2 -25307868#4 -25307868#3 -25307868#2 -25307868#1 -25307868#0 283006414#0 283006414#1 283006414#2 283006414#3 193875628#0 193875628#1 193875628#2 193875628#3 31091036#0 31091036#1 31091036#2 31091036#3 31091036#4 31091036#5 31091036#6 -25332283#4 -25332283#3 -25332283#2 -25332283#1 -25332283#0 -25799283#1 -25799283#0 -25374265 -217390581#0 -25799297#4 -25799297#3"/>
    <stop duration="1800" lane="-25799297#3_0"/>
</vehicle>
<vehicle arrival="161.00" depart="32.00" departLane="0" id="veh25" type="veh_passenger">
    <route edges="-31091036#5 -31091036#4 -31091036#3 -31091036#2 -31091036#1 -31091036#0 -193875628#3 -193875628#2 -193875628#1 -193875628#0 -283006414#3 -283006414#2 -283006414#1 -283006414#0 25307868#0 25307868#1 25307868#2 25307868#3 25307868#4 -9628124#2 -9628124#1 -9628124#0 -594582763 -594582762 -520100576#1 -520100576#0 -283006412#7 283006412#7 520100576#0 520100576#1 594582762 594582763"/>
    <stop duration="1800" lane="594582763_2"/>
</vehicle>
<vehicle arrival="447.00" depart="34.00" departLane="1" id="veh26" type="veh_passenger">
    <route edges="25192970 -25192970 336735697#0 336735697#2 336735697#3 336735697#4 -148614183#24 -148614183#23 -148614183#21 -148614183#20 -148614183#18 -148614183#17 148614175#0 148614175#1 31091036#15 31091036#16 75252111#0 75252111#1 75252111#2 75252111#4 25000125#0 25000125#1 25000125#2 331318342#0 331318342#1 331318342#2 331318342#3 331318342#4 331318342#5 331318342#6 331318342#8 410646532#0 410646532#1 25000104#2 25000104#3 25000104#4 25000104#5 25000104#6 25000104#7 331318343#0 331318343#1 331318343#2 331318343#3 331318343#4 25307934#0 25000113#0 25000113#2 25000113#3 25000113#4 25000113#5 25000113#7 25000113#8 25000113#10 25000113#11 25016103#0 25016103#1"/>
    <stop duration="1800" lane="25016103#1_1"/>
</vehicle>
<vehicle arrival="176.00" depart="35.00" departLane="1" id="veh27" type="veh_passenger">
    <route edges="-25194206#8 -25194206#7 -25194206#6 -25194206#5 -25194206#4 -25194206#3 -25194206#2 -25194206#1 -25194206#0 150937060 723757293 -30689380#1 -30689380#0 283006412#0 283006412#1 283006412#2"/>
    <stop duration="1800" lane="283006412#2_2"/>
</vehicle>
<vehicle arrival="291.00" depart="36.00" departLane="1" id="veh28" type="veh_passenger">
    <route edges="-25192969#3 25192969#3 25192969#4 25192969#5 25332283#2 25332283#3 25332283#4 -31091036#6 -31091036#5 -31091036#4 -31091036#3 -31091036#2 -31091036#1 -31091036#0 -193875628#3 -193875628#2 -193875628#1 -193875628#0 -283006414#3 -283006414#2 -283006414#1 -283006414#0 25307868#0 25307868#1 25307868#2 25307868#3 25307868#4 -279808663#3 -279808663#0 -432116461#2 -432116461#1"/>
    <stop duration="1800" lane="-432116461#1_0"/>
</vehicle>
<vehicle arrival="434.00" depart="37.00" departLane="1" id="veh29" type="veh_passenger">
    <route edges="9624002 9624204#1 9624204#2 -9623625 329190066#0 -217386905 25000125#2 331318342#0 331318342#1 331318342#2 331318342#3 331318342#4 331318342#5 331318342#6 331318342#8 410646532#0 410646532#1 25000104#2 25000104#3 25000104#4 25000104#5 25000104#6 25000104#7 331318343#0 331318343#1 331318343#2 331318343#3 331318343#4 25307934#0 25000113#0 25000113#2 25000113#3 25000113#4 25000113#5 25000113#7 25000113#8 25000113#10 25000113#11 25016103#0 25016103#1 25016103#2 25016103#3 25194206#2"/>
    <stop duration="1800" lane="25194206#2_1"/>
</vehicle>
<vehicle arrival="501.00" depart="39.00" departLane="0" id="veh30" type="veh_passenger">
    <route edges="171257628#0 171257628#1 143742580#2 432116461#0 432116461#1 432116461#2 432116461#3 279808663#1 -43167434#4 -43167434#1 -43167434#0 -328399245 -37849738#6 -37849738#5 -37849738#4 -37849738#3 -37849738#2 -37849738#1 -37849738#0 -43169787#1 -43169787#0 -328400400#2 -328400400#1 -328400400#0 -37849716#1 -37849716#0 -52710327#3 -52710327#2 -52710327#1 -52710327#0 -25374267 -23045996#3 -23045996#2 -23045996#0 25799153#0 25798924#0 25798924#1 25798924#2 25799173#2 25799173#3"/>
    <stop duration="1800" lane="25799173#3_0"/>
</vehicle>
<vehicle arrival="480.00" depart="40.00" departLane="1" id="bike2" type="bike_bicycle">
    <route edges="283006412#7 520100576#0 520100576#1 594582762 594582763 9628124#0 9628124#1 9628124#2 -279808663#3 -279808663#0 -432116461#2 -432116461#1 -432116461#0 26396096#2 26396096#3 26396096#4 26396281#1 26396281#2 26396367#2 264945978#0 264945978#1"/>
</vehicle>
<vehicle arrival="297.00" depart="40.00" departLane="0" id="veh31" type="veh_passenger">
    <route edges="35321083#0 35321083#1 35321083#2 35321083#4 31306481#1 31306481#2 31306481#3 31306481#4 31306481#5 31306481#6 31306481#7"/>
    <stop duration="1800" lane="31306481#7_1"/>
</vehicle>
<vehicle arrival="184.00" depart="41.00" departLane="1" id="veh32" type="veh_passenger">
    <route edges="-26624363#0 -25192965#1 -150937133 -25000113#13 -25000113#11 -25000113#10 -25000113#8 -25000113#7 -25000113#5 -25000113#4 -25000113#3 -25000113#2 -25000113#1 -25307934#1 675103981#1 -328253843#2 -328253843#1 -328253843#0 -723757293 -150937060"/>
    <stop duration="1800" lane="-150937060_1"/>
</vehicle>
<vehicle arrival="573.00" depart="43.00" departLane="1" id="veh33" type="veh_passenger">
    <route edges="-336735697#3 336735697#3 336735697#4 -148614183#24 -148614183#23 -148614183#21 -148614183#20 -148614183#18 -148614183#17 148614175#0 148614175#1 -31091036#14 -31091036#13 -31091036#12 -31091036#11 -31091036#10 -31091036#9 -31091036#8 -31091036#7 -31091036#6 -31091036#5 -31091036#4 -31091036#3 -31091036#2 -31091036#1 -31091036#0 -193875628#3 -193875628#2 -193875628#1 -193875628#0 -283006414#3 -283006414#2 -283006414#1 -283006414#0 25307868#0 25307868#1 25307868#2 25307868#3 25307868#4 -43167434#4 -43167434#1 -43167434#0 -328399245 -37849738#6 -37849738#5 -37849738#4 -37849738#3 -37849738#2 -37849738#1 -37849738#0 -43169787#1 -43169787#0 -328400400#2 -328400400#1 -328400400#0 -37849716#1 -37849716#0 -217390621 -26192423 -586055414 586676243 35403826 587695667#0 -587695669 -25799153#19 -25799153#18 -25799153#17 -25799153#16 -25799153#15 -25799153#14 587687964#0 587687964#1 587687964#2 -245124128 -284321548#0"/>
    <stop duration="1800" lane="-284321548#0_0"/>
</vehicle>
<vehicle arrival="317.00" depart="46.00" departLane="1" id="veh34" type="veh_passenger">
    <route edges="-25799283#1 25799283#1 25332283#0 25332283#1 25332283#2 25332283#3 25332283#4 -31091036#6 -31091036#5 -31091036#4 -31091036#3 -31091036#2 -31091036#1 -31091036#0 -193875628#3 -193875628#2 -193875628#1 -193875628#0 -283006414#3 -283006414#2 -283006414#1 -283006414#0 25307868#0 25307868#1 25307868#2 25307868#3 25307868#4 -9628124#2 -9628124#1 -9628124#0 -594582763 -594582762 -520100576#1 -520100576#0 -283006412#7 -283006412#6 -283006412#5 -283006412#4 -283006412#3 -283006412#2 -283006412#1 -283006412#0 30689380#0 30689380#1 328253843#0 328253843#1 328253843#2 638460946 638460947#0 638460947#1 675103981#1"/>
    <stop duration="1800" lane="675103981#1_2"/>
</vehicle>
<vehicle arrival="205.00" depart="46.00" departLane="2" id="veh35" type="veh_passenger">
    <route edges="37849738#4 37849738#5 37849738#6 328399245 43167434#0 43167434#1 43167434#2 -9628124#2 -9628124#1 -9628124#0 -594582763 -594582762 -520100576#1 -520100576#0 -283006412#7 -283006412#6 -283006412#5 -283006412#4 -283006412#3 -283006412#2 -283006412#1 -283006412#0 30689380#0 30689380#1 328253843#0 328253843#1 328253843#2 638460946 638460947#0 638460947#1 -331318343#4"/>
    <stop duration="1800" lane="-331318343#4_2"/>
</vehicle>
<vehicle arrival="123.00" depart="47.00" departLane="1" id="veh36" type="veh_passenger">
    <route edges="25194873#2 25194873#3 25194874#0 25194874#1 25194874#2 432116461#3 279808663#1 -9628124#2 -9628124#1 -9628124#0 -594582763 -594582762 -520100576#1 -520100576#0"/>
    <stop duration="1800" lane="-520100576#0_2"/>
</vehicle>
<vehicle arrival="123.00" depart="49.00" departLane="0" id="veh38" type="veh_passenger">
    <route edges="-31091036#14 31091036#14 31091036#15 31091036#16 75252111#0 75252111#1 75252111#2 75252111#4 173640273#0 173640273#1 173640273#2 173640273#3 173640273#4 173640273#5 272111635#0 -272111635#2"/>
    <stop duration="1800" lane="-272111635#2_1"/>
</vehicle>
<vehicle arrival="239.00" depart="51.00" departLane="2" id="veh39" type="veh_passenger">
    <route edges="173640273#1 173640273#2 173640273#3 -336735697#6 -336735697#5 -148614183#24 -148614183#23 -148614183#21 -148614183#20 -148614183#18 -148614183#17 148614175#0 148614175#1 -31091036#14 -31091036#13 -31091036#12 -31091036#11 -31091036#10 -31091036#9 -31091036#8 -31091036#7 -31091036#6 -31091036#5 -31091036#4 -31091036#3 -31091036#2 -31091036#1 -31091036#0 -193875628#3 -193875628#2 -193875628#1 -193875628#0 -283006414#3 -283006414#2 -283006414#1"/>
    <stop duration="1800" lane="-283006414#1_2"/>
</vehicle>
<vehicle arrival="787.00" depart="52.00" id="pt_tram_60:1.0" type="pt_tram">
    <route edges="144077983 173640267#0 173640267#1 93704177#0 93704177#1 93704167#0 93704167#1 173640262 25000118 177946329 179081032#0 179081032#1 180202673#0 180202673#1 180202673#2 288073818 288073812 288073825 117702504 171257586"/>
    <stop busStop="349047807" duration="30.00" until="95.00"/>
    <stop busStop="349047810" duration="30.00" until="174.00"/>
    <stop busStop="349047813" duration="30.00" until="238.00"/>
    <stop busStop="349058473" duration="30.00" until="311.00"/>
    <stop busStop="3890748391" duration="30.00" until="386.00"/>
    <stop busStop="3890748370" duration="30.00" until="447.00"/>
    <stop busStop="3890748378" duration="30.00" until="511.00"/>
    <stop busStop="3890748382" duration="30.00" until="578.00"/>
    <stop busStop="1883465386" duration="30.00" until="640.00"/>
    <stop busStop="1883484180" duration="30.00" until="702.00"/>
    <stop busStop="1883472919" duration="30.00" until="786.00"/>
    <param key="completeness" value="0.33"/>
    <param key="name" value="Straßenbahnlinie 60: Johannisthal, Haeckelstraße => Friedrichshagen, Altes Wasserwerk"/>
</vehicle>
<vehicle arrival="237.00" depart="53.00" departLane="1" id="veh40" type="veh_passenger">
    <route edges="23045996#2 23045996#3 23045996#4 52710327#0 52710327#1 52710327#2 52710327#3 37849716#0 37849716#1 328400400#0 328400400#1 328400400#2 43169787#0 43169787#1 37849738#0 37849738#1 37849738#2 37849738#3 37849738#4 37849738#5 37849738#6 328399245 -456662393 -283006421#2 -283006421#1 -283006421#0 -456662392#1 -456662392#0 456662392#0 456662392#1"/>
    <stop duration="1800" lane="456662392#1_1"/>
</vehicle>
<vehicle arrival="164.00" depart="53.00" departLane="0" id="veh41" type="veh_passenger">
    <route edges="-48563052#1 -48563052#0 -46828421#2 -46828421#1 -46828421#0 -32936058#5 -32936058#4 -25814959#2 -25814959#1"/>
    <stop duration="1800" lane="-25814959#1_1"/>
</vehicle>
<vehicle arrival="231.00" depart="54.00" departLane="3" id="veh42" type="veh_passenger">
    <route edges="9628124#2 -43167434#4 43167434#2 -9628124#2 -9628124#1 -9628124#0 -594582763 -594582762 -520100576#1 -520100576#0 -283006412#7 -283006412#6 -283006412#5 154754266 266454540#6 150937124#0 150937124#1"/>
    <stop duration="1800" lane="150937124#1_1"/>
</vehicle>
<vehicle arrival="589.00" depart="56.00" departLane="0" id="veh43" type="veh_passenger">
    <route edges="-171091371#1 -31306481#4 -31306481#3 -31306481#2 -31306481#1 -31306481#0 -31306520#6 -31306520#5 -31306520#4 -31306520#3 -31306520#2 -31306520#1 -31306520#0 150937132#0 456662392#0 456662392#1 283006421#0 283006421#1 283006421#2 456662393 43167434#0 43167434#1 43167434#2 -9628124#2 -9628124#1 -9628124#0 -594582763 -594582762 -520100576#1 -520100576#0 -283006412#7 -283006412#6 -283006412#5 154754266 266454540#6 150937124#0 -150937124#0"/>
    <stop duration="1800" lane="-150937124#0_1"/>
</vehicle>
<vehicle arrival="335.00" depart="57.00" departLane="0" id="veh44" type="veh_passenger">
    <route edges="-24751914#5 24751914#5 -31306481#1 -31306481#0 -31306520#6 -31306520#5 -31306520#4 -31306520#3 -31306520#2 -31306520#1 -31306520#0 150937132#0 456662392#0 456662392#1 283006421#0 283006421#1 283006421#2 456662393 43167434#0 43167434#1 43167434#2 -9628124#2 -9628124#1 -9628124#0 -594582763 -594582762 -520100576#1 -520100576#0 -283006412#7 -283006412#6 -283006412#5 -283006412#4 -283006412#3 -283006412#2 -283006412#1 -283006412#0 30689380#0 30689380#1 -723757293 -150937060 -266454540#3 25192963#0 25192963#1 25192963#2"/>
    <stop duration="1800" lane="25192963#2_0"/>
</vehicle>
<vehicle arrival="176.00" depart="58.00" departLane="1" id="veh45" type="veh_passenger">
    <route edges="31091054#2 31091054#3 31091054#4 -31091054#4 -31091054#3 -31091054#2 -31091054#1 -43167439#1 -43167439#0 -31091055 -685460477#1 -685460477#0 -690827780 -685460476#3 -685460476#2 -685460476#1"/>
    <stop duration="1800" lane="-685460476#1_1"/>
</vehicle>
<vehicle arrival="174.00" depart="60.00" departLane="1" id="veh46" type="veh_passenger">
    <route edges="-151237805#0 151237827#6 151237827#7 283006412#3 283006412#4 283006412#5 283006412#6 283006412#7 520100576#0 520100576#1 594582762 594582763 9628124#0 9628124#1 9628124#2 -43167434#4 -43167434#1 -43167434#0 -456662393 -283006421#2 -283006421#1 -283006421#0 -456662392#1 -456662392#0"/>
    <stop duration="1800" lane="-456662392#0_1"/>
</vehicle>
<vehicle arrival="493.00" depart="61.00" departLane="1" id="moto2" type="moto_motorcycle">
    <route edges="-148614183#9 25192969#0 25192969#1 25192969#2 25192969#3 25192969#4 25192969#5 25332283#2 25332283#3 25332283#4 -31091036#6 -31091036#5 -31091036#4 -31091036#3 -31091036#2 -31091036#1 -31091036#0 -193875628#3 -193875628#2 -193875628#1 -193875628#0 -283006414#3 -283006414#2 -283006414#1 -283006414#0 25307868#0 25307868#1 25307868#2 25307868#3 25307868#4 -43167434#4 -43167434#1 -43167434#0 -328399245 -37849738#6 -37849738#5 -37849738#4 -37849738#3 -37849738#2 -37849738#1 -37849738#0 -43169787#1 -43169787#0 -328400400#2 -328400400#1 -328400400#0 -37849716#1 -37849716#0 -217390621 -26192423 -586055414 586676243 35403826 587695667#0 -587695669 -25799153#19 -25799153#18 -25799153#17"/>
    <stop duration="1800" lane="-25799153#17_0"/>
</vehicle>
<vehicle arrival="179.00" depart="61.00" departLane="3" id="veh47" type="veh_passenger">
    <route edges="9628124#1 9628124#2 -25307868#4 -25307868#3 -25307868#2 -25307868#1 -25307868#0 283006414#0 283006414#1 283006414#2 283006414#3 -151237803#3 -151237817#4 151237817#4"/>
    <stop duration="1800" lane="151237817#4_1"/>
</vehicle>
<vehicle arrival="316.00" depart="62.00" departLane="1" id="veh48" type="veh_passenger">
    <route edges="72442767#8 72442767#9 72442767#10 72442767#11 151237831#5 -723757291#6 -723757291#5 -723757291#4 -723757291#3 -723757291#1 -723757291#0 -723757292 -30689380#1 -30689380#0 283006412#0 283006412#1 283006412#2 283006412#3 283006412#4 283006412#5 283006412#6 283006412#7 520100576#0 520100576#1 594582762 594582763 9628124#0 9628124#1 9628124#2 -43167434#4 -43167434#1 -43167434#0 -328399245 -37849738#6 -37849738#5 -37849738#4 37849738#4"/>
    <stop duration="1800" lane="37849738#4_2"/>
</vehicle>
<vehicle arrival="422.00" depart="64.00" departLane="1" id="veh49" type="veh_passenger">