<?xml version="1.0" encoding="UTF-8"?>

<!-- generated on 09/19/19 15:26:24 by Eclipse SUMO netedit Version v1_3_1+0387-af6f2b6888
<configuration xmlns:xsi="http://www.w3.org/2001/XMLSchema-instance" xsi:noNamespaceSchemaLocation="http://sumo.dlr.de/xsd/netconvertConfiguration.xsd">

    <input>
        <sumo-net-file value="C:\Users\camil\Sumo\2019-09-16-14-49-50\net.net.xml"/>
    </input>

    <output>
        <output-file value="C:\Users\camil\Sumo\2019-09-16-14-49-50\net.net.xml"/>
    </output>

    <processing>
        <geometry.max-grade.fix value="false"/>
        <offset.disable-normalization value="true"/>
        <lefthand value="false"/>
    </processing>

    <junctions>
        <no-turnarounds value="true"/>
        <junctions.corner-detail value="5"/>
        <junctions.limit-turn-speed value="5.5"/>
        <rectangular-lane-cut value="false"/>
    </junctions>

    <pedestrian>
        <walkingareas value="false"/>
    </pedestrian>

</configuration>
-->

<net version="1.3" junctionCornerDetail="5" limitTurnSpeed="5.50" xmlns:xsi="http://www.w3.org/2001/XMLSchema-instance" xsi:noNamespaceSchemaLocation="http://sumo.dlr.de/xsd/net_file.xsd">

    <location netOffset="0.00,0.00" convBoundary="-263.60,-237.11,554.34,399.71" origBoundary="-10000000000.00,-10000000000.00,10000000000.00,10000000000.00" projParameter="!"/>

    <edge id=":gneJ1_0" function="internal">
        <lane id=":gneJ1_0_0" index="0" speed="13.89" length="0.30" shape="3.87,84.84 3.57,84.86"/>
    </edge>
    <edge id=":gneJ11_0" function="internal">
        <lane id=":gneJ11_0_0" index="0" speed="4.01" length="1.72" shape="-17.14,-32.65 -17.59,-32.60 -17.99,-32.68 -18.36,-32.86 -18.69,-33.16"/>
    </edge>
    <edge id=":gneJ12_0" function="internal">
        <lane id=":gneJ12_0_0" index="0" speed="6.62" length="2.08" shape="-55.98,-76.14 -56.91,-77.44 -57.09,-77.88"/>
    </edge>
    <edge id=":gneJ12_1" function="internal">
        <lane id=":gneJ12_1_0" index="0" speed="6.44" length="2.09" shape="-55.98,-76.14 -56.92,-77.45 -57.09,-77.90"/>
    </edge>
    <edge id=":gneJ12_4" function="internal">
        <lane id=":gneJ12_4_0" index="0" speed="6.62" length="3.57" shape="-57.09,-77.88 -57.44,-78.74 -57.58,-80.05 -57.32,-81.36"/>
    </edge>
    <edge id=":gneJ12_5" function="internal">
        <lane id=":gneJ12_5_0" index="0" speed="6.44" length="3.54" shape="-57.09,-77.90 -57.44,-78.76 -57.55,-80.05 -57.25,-81.33"/>
    </edge>
    <edge id=":gneJ12_2" function="internal">
        <lane id=":gneJ12_2_0" index="0" speed="13.89" length="6.35" shape="-60.32,-75.78 -59.30,-77.37 -58.59,-78.46 -58.00,-79.60 -57.32,-81.36"/>
    </edge>
    <edge id=":gneJ12_3" function="internal">
        <lane id=":gneJ12_3_0" index="0" speed="13.89" length="6.36" shape="-60.32,-75.78 -59.31,-77.37 -58.60,-78.46 -57.99,-79.60 -57.25,-81.33"/>
    </edge>
    <edge id=":gneJ14_0" function="internal">
        <lane id=":gneJ14_0_0" index="0" speed="8.37" length="7.36" shape="-67.49,-53.87 -68.84,-53.57 -70.25,-52.76 -71.73,-51.45 -73.27,-49.63"/>
    </edge>
    <edge id=":gneJ14_1" function="internal">
        <lane id=":gneJ14_1_0" index="0" speed="13.89" length="9.09" shape="-67.49,-53.87 -76.58,-53.65"/>
    </edge>
    <edge id=":gneJ14_2" function="internal">
        <lane id=":gneJ14_2_0" index="0" speed="5.13" length="7.56" shape="-67.49,-53.87 -70.12,-54.02 -71.64,-54.71 -72.04,-55.96 -71.32,-57.77"/>
    </edge>
    <edge id=":gneJ15_0" function="internal">
        <lane id=":gneJ15_0_0" index="0" speed="8.67" length="7.61" shape="-99.54,-15.10 -100.97,-13.03 -101.92,-11.19 -102.38,-9.59 -102.37,-8.23"/>
    </edge>
    <edge id=":gneJ15_1" function="internal">
        <lane id=":gneJ15_1_0" index="0" speed="5.87" length="3.45" shape="-106.57,-12.50 -105.09,-12.37 -103.89,-11.61 -103.59,-11.16"/>
    </edge>
    <edge id=":gneJ15_2" function="internal">
        <lane id=":gneJ15_2_0" index="0" speed="5.87" length="3.20" shape="-103.59,-11.16 -102.98,-10.23 -102.37,-8.23"/>
    </edge>
    <edge id=":gneJ16_0" function="internal">
        <lane id=":gneJ16_0_0" index="0" speed="13.89" length="0.48" shape="-97.74,14.30 -97.72,14.44 -97.70,14.53 -97.71,14.63 -97.72,14.77"/>
    </edge>
    <edge id=":gneJ17_0" function="internal">
        <lane id=":gneJ17_0_0" index="0" speed="4.19" length="1.26" shape="-100.36,42.49 -100.42,42.81 -100.53,43.09 -100.71,43.35 -100.94,43.58"/>
    </edge>
    <edge id=":gneJ18_0" function="internal">
        <lane id=":gneJ18_0_0" index="0" speed="13.89" length="0.51" shape="-133.54,70.31 -133.65,70.41 -133.73,70.48 -133.79,70.56 -133.87,70.69"/>
    </edge>
    <edge id=":gneJ19_0" function="internal">
        <lane id=":gneJ19_0_0" index="0" speed="13.89" length="0.27" shape="-135.91,92.75 -135.99,92.76 -136.05,92.76 -136.10,92.77 -136.18,92.79"/>
    </edge>
    <edge id=":gneJ20_0" function="internal">
        <lane id=":gneJ20_0_0" index="0" speed="12.39" length="14.34" shape="-144.39,94.66 -147.06,95.70 -149.70,97.60 -152.29,100.37 -154.83,103.99"/>
    </edge>
    <edge id=":gneJ20_1" function="internal">
        <lane id=":gneJ20_1_0" index="0" speed="5.90" length="9.44" shape="-144.39,94.66 -148.02,95.24 -150.51,95.08 -151.86,94.19 -152.08,92.55"/>
    </edge>
    <edge id=":gneJ20_2" function="internal">
        <lane id=":gneJ20_2_0" index="0" speed="13.89" length="15.09" shape="-146.83,91.20 -154.83,103.99"/>
    </edge>
    <edge id=":gneJ20_3" function="internal">
        <lane id=":gneJ20_3_0" index="0" speed="5.63" length="2.93" shape="-146.83,91.20 -148.51,93.61"/>
    </edge>
    <edge id=":gneJ20_4" function="internal">
        <lane id=":gneJ20_4_0" index="0" speed="5.63" length="9.41" shape="-148.51,93.61 -149.76,95.40 -151.61,97.02 -152.38,96.07 -152.08,92.55"/>
    </edge>
    <edge id=":gneJ21_0" function="internal">
        <lane id=":gneJ21_0_0" index="0" speed="13.89" length="0.55" shape="-147.84,68.35 -147.82,68.19 -147.81,68.08 -147.81,67.96 -147.84,67.80"/>
    </edge>
    <edge id=":gneJ22_0" function="internal">
        <lane id=":gneJ22_0_0" index="0" speed="13.89" length="11.22" shape="-159.60,-0.97 -161.43,-12.04"/>
    </edge>
    <edge id=":gneJ22_1" function="internal">
        <lane id=":gneJ22_1_0" index="0" speed="6.38" length="9.04" shape="-159.60,-0.97 -159.67,-3.46 -158.91,-5.34 -157.32,-6.58 -154.90,-7.21"/>
    </edge>
    <edge id=":gneJ23_0" function="internal">
        <lane id=":gneJ23_0_0" index="0" speed="13.89" length="6.23" shape="-167.44,-49.08 -167.71,-50.91 -167.89,-52.17 -168.15,-53.41 -168.66,-55.18"/>
    </edge>
    <edge id=":gneJ23_1" function="internal">
        <lane id=":gneJ23_1_0" index="0" speed="5.73" length="1.79" shape="-164.62,-52.44 -166.06,-52.59 -166.37,-52.73"/>
    </edge>
    <edge id=":gneJ23_2" function="internal">
        <lane id=":gneJ23_2_0" index="0" speed="5.73" length="3.49" shape="-166.37,-52.73 -167.22,-53.10 -168.08,-53.97 -168.66,-55.18"/>
    </edge>
    <edge id=":gneJ26_0" function="internal">
        <lane id=":gneJ26_0_0" index="0" speed="3.91" length="2.45" shape="-56.37,-83.51 -56.22,-84.15 -56.29,-84.71 -56.61,-85.17 -57.16,-85.54"/>
    </edge>
    <edge id=":gneJ27_0" function="internal">
        <lane id=":gneJ27_0_0" index="0" speed="13.89" length="0.39" shape="-118.14,-115.09 -118.24,-115.14 -118.31,-115.17 -118.39,-115.19 -118.50,-115.22"/>
    </edge>
    <edge id=":gneJ28_0" function="internal">
        <lane id=":gneJ28_0_0" index="0" speed="13.89" length="0.79" shape="-151.66,-122.23 -151.89,-122.27 -152.05,-122.29 -152.21,-122.26 -152.43,-122.20"/>
    </edge>
    <edge id=":gneJ3_0" function="internal">
        <lane id=":gneJ3_0_0" index="0" speed="6.68" length="4.10" shape="15.83,-7.28 13.51,-8.16 12.27,-9.21"/>
    </edge>
    <edge id=":gneJ3_2" function="internal">
        <lane id=":gneJ3_2_0" index="0" speed="6.68" length="4.66" shape="12.27,-9.21 11.95,-9.49 11.13,-11.29 11.07,-13.54"/>
    </edge>
    <edge id=":gneJ3_1" function="internal">
        <lane id=":gneJ3_1_0" index="0" speed="13.89" length="10.48" shape="10.11,-3.10 11.07,-13.54"/>
    </edge>
    <edge id=":gneJ35_0" function="internal">
        <lane id=":gneJ35_0_0" index="0" speed="3.94" length="2.07" shape="-260.98,274.47 -261.21,274.97 -261.26,275.45 -261.13,275.92 -260.82,276.38"/>
    </edge>
    <edge id=":gneJ36_0" function="internal">
        <lane id=":gneJ36_0_0" index="0" speed="4.13" length="1.38" shape="-153.79,397.55 -153.53,397.79 -153.24,397.96 -152.92,398.06 -152.57,398.09"/>
    </edge>
    <edge id=":gneJ37_0" function="internal">
        <lane id=":gneJ37_0_0" index="0" speed="13.89" length="0.34" shape="-102.25,397.45 -102.15,397.45 -102.08,397.45 -102.01,397.44 -101.91,397.41"/>
    </edge>
    <edge id=":gneJ38_0" function="internal">
        <lane id=":gneJ38_0_0" index="0" speed="13.89" length="0.24" shape="156.20,338.16 156.27,338.14 156.32,338.13 156.37,338.11 156.44,338.08"/>
    </edge>
    <edge id=":gneJ39_0" function="internal">
        <lane id=":gneJ39_0_0" index="0" speed="13.89" length="0.78" shape="271.03,292.63 271.24,292.55 271.40,292.51 271.56,292.51 271.79,292.53"/>
    </edge>
    <edge id=":gneJ4_0" function="internal">
        <lane id=":gneJ4_0_0" index="0" speed="6.74" length="8.37" shape="68.41,9.94 68.19,7.84 67.30,6.16 65.74,4.91 63.52,4.09"/>
    </edge>
    <edge id=":gneJ4_1" function="internal">
        <lane id=":gneJ4_1_0" index="0" speed="13.89" length="9.89" shape="68.41,9.94 68.85,0.06"/>
    </edge>
    <edge id=":gneJ40_0" function="internal">
        <lane id=":gneJ40_0_0" index="0" speed="13.89" length="0.64" shape="327.90,298.40 328.09,298.42 328.22,298.42 328.35,298.39 328.53,298.34"/>
    </edge>
    <edge id=":gneJ41_0" function="internal">
        <lane id=":gneJ41_0_0" index="0" speed="13.89" length="0.73" shape="483.65,251.02 483.86,250.96 484.01,250.93 484.16,250.94 484.37,250.97"/>
    </edge>
    <edge id=":gneJ42_0" function="internal">
        <lane id=":gneJ42_0_0" index="0" speed="3.90" length="2.82" shape="542.16,260.29 542.95,260.31 543.52,260.06 543.88,259.54 544.02,258.77"/>
    </edge>
    <edge id=":gneJ49_0" function="internal">
        <lane id=":gneJ49_0_0" index="0" speed="3.90" length="2.65" shape="552.62,14.34 552.55,13.61 552.25,13.09 551.75,12.78 551.03,12.68"/>
    </edge>
    <edge id=":gneJ5_0" function="internal">
        <lane id=":gneJ5_0_0" index="0" speed="13.89" length="12.23" shape="20.24,-40.06 16.94,-39.80 14.17,-39.39 11.43,-38.83 8.19,-38.11"/>
    </edge>
    <edge id=":gneJ5_1" function="internal">
        <lane id=":gneJ5_1_0" index="0" speed="5.88" length="4.20" shape="20.24,-40.06 17.61,-40.31 16.30,-41.14"/>
    </edge>
    <edge id=":gneJ5_4" function="internal">
        <lane id=":gneJ5_4_0" index="0" speed="5.88" length="4.92" shape="16.30,-41.14 16.00,-41.34 15.41,-43.16 15.85,-45.77"/>
    </edge>
    <edge id=":gneJ5_2" function="internal">
        <lane id=":gneJ5_2_0" index="0" speed="5.90" length="9.10" shape="13.53,-33.22 13.48,-35.86 12.58,-37.55 10.81,-38.30 8.19,-38.11"/>
    </edge>
    <edge id=":gneJ5_3" function="internal">
        <lane id=":gneJ5_3_0" index="0" speed="13.89" length="12.78" shape="13.53,-33.22 13.94,-36.61 14.36,-39.57 14.94,-42.49 15.85,-45.77"/>
    </edge>
    <edge id=":gneJ50_0" function="internal">
        <lane id=":gneJ50_0_0" index="0" speed="4.37" length="1.08" shape="523.53,12.68 523.21,12.67 522.99,12.63 522.79,12.53 522.54,12.34"/>
    </edge>
    <edge id=":gneJ51_0" function="internal">
        <lane id=":gneJ51_0_0" index="0" speed="13.89" length="12.60" shape="275.78,-182.03 273.31,-184.29 271.51,-186.58 270.02,-189.11 268.43,-192.12"/>
    </edge>
    <edge id=":gneJ51_1" function="internal">
        <lane id=":gneJ51_1_0" index="0" speed="6.06" length="9.07" shape="265.43,-185.28 267.81,-186.27 269.10,-187.75 269.30,-189.69 268.43,-192.12"/>
    </edge>
    <edge id=":gneJ52_0" function="internal">
        <lane id=":gneJ52_0_0" index="0" speed="3.93" length="2.21" shape="246.05,-234.06 245.71,-234.54 245.28,-234.83 244.78,-234.93 244.19,-234.85"/>
    </edge>
    <edge id=":gneJ53_0" function="internal">
        <lane id=":gneJ53_0_0" index="0" speed="13.89" length="13.26" shape="-25.04,-156.25 -28.41,-155.41 -31.52,-154.89 -34.65,-154.55 -38.12,-154.24"/>
    </edge>
    <edge id=":gneJ53_1" function="internal">
        <lane id=":gneJ53_1_0" index="0" speed="5.78" length="9.16" shape="-33.80,-148.71 -33.27,-151.35 -33.81,-153.16 -35.43,-154.12 -38.12,-154.24"/>
    </edge>
    <edge id=":gneJ54_0" function="internal">
        <lane id=":gneJ54_0_0" index="0" speed="13.89" length="0.91" shape="31.21,-94.23 31.30,-94.49 31.38,-94.65 31.51,-94.79 31.71,-94.97"/>
    </edge>
    <edge id=":gneJ58_0" function="internal">
        <lane id=":gneJ58_0_0" index="0" speed="13.89" length="0.57" shape="56.53,-114.66 56.66,-114.55 56.75,-114.49 56.86,-114.44 57.02,-114.38"/>
    </edge>
    <edge id=":gneJ59_0" function="internal">
        <lane id=":gneJ59_0_0" index="0" speed="4.04" length="4.29" shape="176.29,-71.09 177.47,-70.49 177.92,-69.81 177.62,-69.06 176.58,-68.23"/>
    </edge>
    <edge id=":gneJ6_0" function="internal">
        <lane id=":gneJ6_0_0" index="0" speed="6.32" length="9.04" shape="70.36,-36.69 70.11,-39.18 69.11,-40.93 67.36,-41.92 64.86,-42.16"/>
    </edge>
    <edge id=":gneJ6_1" function="internal">
        <lane id=":gneJ6_1_0" index="0" speed="13.89" length="11.24" shape="70.36,-36.69 70.77,-47.92"/>
    </edge>
    <edge id=":gneJ60_0" function="internal">
        <lane id=":gneJ60_0_0" index="0" speed="4.09" length="1.48" shape="146.63,-49.88 146.28,-49.71 145.93,-49.64 145.57,-49.65 145.20,-49.75"/>
    </edge>
    <edge id=":gneJ7_0" function="internal">
        <lane id=":gneJ7_0_0" index="0" speed="3.90" length="2.74" shape="71.33,-69.89 71.46,-70.64 71.80,-71.15 72.35,-71.42 73.11,-71.44"/>
    </edge>

    <edge id="gneE0" from="gneJ0" to="gneJ1" priority="-1">
        <lane id="gneE0_0" index="0" speed="13.89" length="58.35" shape="62.13,81.64 3.87,84.84"/>
    </edge>
    <edge id="gneE1" from="gneJ2" to="gneJ3" priority="-1">
        <lane id="gneE1_0" index="0" speed="13.89" length="81.84" shape="4.01,78.51 10.11,-3.10"/>
    </edge>
    <edge id="gneE10" from="gneJ5" to="gneJ11" priority="-1">
        <lane id="gneE10_0" index="0" speed="13.89" length="25.91" shape="8.19,-38.11 -17.14,-32.65"/>
    </edge>
    <edge id="gneE11" from="gneJ11" to="gneJ12" priority="-1">
        <lane id="gneE11_0" index="0" speed="13.89" length="56.90" shape="-18.69,-33.16 -55.98,-76.14"/>
    </edge>
    <edge id="gneE12" from="gneJ13" to="gneJ14" priority="-1">
        <lane id="gneE12_0" index="0" speed="13.89" length="28.32" shape="-39.19,-55.05 -67.49,-53.87"/>
    </edge>
    <edge id="gneE13" from="gneJ14" to="gneJ12" priority="-1">
        <lane id="gneE13_0" index="0" speed="13.89" length="21.11" shape="-71.32,-57.77 -60.32,-75.78"/>
    </edge>
    <edge id="gneE14" from="gneJ14" to="gneJ15" priority="-1">
        <lane id="gneE14_0" index="0" speed="13.89" length="43.39" shape="-73.27,-49.63 -99.54,-15.10"/>
    </edge>
    <edge id="gneE15" from="gneJ15" to="gneJ16" priority="-1">
        <lane id="gneE15_0" index="0" speed="13.89" length="23.00" shape="-102.37,-8.23 -97.74,14.30"/>
    </edge>
    <edge id="gneE16" from="gneJ16" to="gneJ17" priority="-1">
        <lane id="gneE16_0" index="0" speed="13.89" length="27.85" shape="-97.72,14.77 -100.36,42.49"/>
    </edge>
    <edge id="gneE17" from="gneJ17" to="gneJ18" priority="-1">
        <lane id="gneE17_0" index="0" speed="13.89" length="42.16" shape="-100.94,43.58 -133.54,70.31"/>
    </edge>
    <edge id="gneE18" from="gneJ1" to="gneJ19" priority="-1">
        <lane id="gneE18_0" index="0" speed="13.89" length="139.71" shape="3.57,84.86 -135.91,92.75"/>
    </edge>
    <edge id="gneE19" from="gneJ19" to="gneJ20" priority="-1">
        <lane id="gneE19_0" index="0" speed="13.89" length="8.42" shape="-136.18,92.79 -144.39,94.66"/>
    </edge>
    <edge id="gneE2" from="gneJ0" to="gneJ4" priority="-1">
        <lane id="gneE2_0" index="0" speed="13.89" length="68.67" shape="65.21,78.53 68.41,9.94"/>
    </edge>
    <edge id="gneE20" from="gneJ18" to="gneJ20" priority="-1">
        <lane id="gneE20_0" index="0" speed="13.89" length="24.26" shape="-133.87,70.69 -146.83,91.20"/>
    </edge>
    <edge id="gneE21" from="gneJ20" to="gneJ21" priority="-1">
        <lane id="gneE21_0" index="0" speed="13.89" length="24.57" shape="-152.08,92.55 -147.84,68.35"/>
    </edge>
    <edge id="gneE22" from="gneJ21" to="gneJ22" priority="-1">
        <lane id="gneE22_0" index="0" speed="13.89" length="69.77" shape="-147.84,67.80 -159.60,-0.97"/>
    </edge>
    <edge id="gneE23" from="gneJ22" to="gneJ15" priority="-1">
        <lane id="gneE23_0" index="0" speed="13.89" length="48.62" shape="-154.90,-7.21 -106.57,-12.50"/>
    </edge>
    <edge id="gneE24" from="gneJ22" to="gneJ23" priority="-1">
        <lane id="gneE24_0" index="0" speed="13.89" length="37.53" shape="-161.43,-12.04 -167.44,-49.08"/>
    </edge>
    <edge id="gneE25" from="gneJ14" to="gneJ23" priority="-1">
        <lane id="gneE25_0" index="0" speed="13.89" length="88.05" shape="-76.58,-53.65 -164.62,-52.44"/>
    </edge>
    <edge id="gneE26" from="gneJ24" to="gneJ25" priority="-1">
        <lane id="gneE26_0" index="0" speed="13.89" length="48.17" shape="-128.63,-52.67 -129.29,-100.84"/>
    </edge>
    <edge id="gneE27" from="gneJ12" to="gneJ26" priority="-1">
        <lane id="gneE27_0" index="0" speed="13.89" length="2.35" shape="-57.25,-81.33 -56.37,-83.51"/>
    </edge>
    <edge id="gneE28" from="gneJ26" to="gneJ27" priority="-1">
        <lane id="gneE28_0" index="0" speed="13.89" length="67.76" shape="-57.16,-85.54 -118.14,-115.09"/>
    </edge>
    <edge id="gneE29" from="gneJ27" to="gneJ28" priority="-1">
        <lane id="gneE29_0" index="0" speed="13.89" length="33.89" shape="-118.50,-115.22 -151.66,-122.23"/>
    </edge>
    <edge id="gneE3" from="gneJ4" to="gneJ3" priority="-1">
        <lane id="gneE3_0" index="0" speed="13.89" length="49.04" shape="63.52,4.09 15.83,-7.28"/>
    </edge>
    <edge id="gneE30" from="gneJ28" to="gneJ29" priority="-1">
        <lane id="gneE30_0" index="0" speed="13.89" length="28.02" shape="-152.43,-122.20 -179.38,-114.50"/>
    </edge>
    <edge id="gneE31" from="gneJ23" to="gneJ30" priority="-1">
        <lane id="gneE31_0" index="0" speed="13.89" length="58.39" shape="-168.66,-55.18 -185.97,-110.95"/>
    </edge>
    <edge id="gneE33" from="gneJ33" to="gneJ34" priority="-1">
        <lane id="gneE33_0" index="0" speed="13.89" length="30.36" shape="-184.03,-107.13 -190.31,-136.83"/>
    </edge>
    <edge id="gneE34" from="gneJ20" to="gneJ35" priority="-1">
        <lane id="gneE34_0" index="0" speed="13.89" length="200.83" shape="-154.83,103.99 -260.98,274.47"/>
    </edge>
    <edge id="gneE35" from="gneJ35" to="gneJ36" priority="-1">
        <lane id="gneE35_0" index="0" speed="13.89" length="161.67" shape="-260.82,276.38 -153.79,397.55"/>
    </edge>
    <edge id="gneE36" from="gneJ36" to="gneJ37" priority="-1">
        <lane id="gneE36_0" index="0" speed="13.89" length="50.32" shape="-152.57,398.09 -102.25,397.45"/>
    </edge>
    <edge id="gneE37" from="gneJ37" to="gneJ38" priority="-1">
        <lane id="gneE37_0" index="0" speed="13.89" length="264.83" shape="-101.91,397.41 156.20,338.16"/>
    </edge>
    <edge id="gneE38" from="gneJ38" to="gneJ39" priority="-1">
        <lane id="gneE38_0" index="0" speed="13.89" length="123.28" shape="156.44,338.08 271.03,292.63"/>
    </edge>
    <edge id="gneE39" from="gneJ39" to="gneJ40" priority="-1">
        <lane id="gneE39_0" index="0" speed="13.89" length="56.42" shape="271.79,292.53 327.90,298.40"/>
    </edge>
    <edge id="gneE4" from="gneJ3" to="gneJ5" priority="-1">
        <lane id="gneE4_0" index="0" speed="13.89" length="19.83" shape="11.07,-13.54 13.53,-33.22"/>
    </edge>
    <edge id="gneE40" from="gneJ40" to="gneJ41" priority="-1">
        <lane id="gneE40_0" index="0" speed="13.89" length="162.18" shape="328.53,298.34 483.65,251.02"/>
    </edge>
    <edge id="gneE41" from="gneJ41" to="gneJ42" priority="-1">
        <lane id="gneE41_0" index="0" speed="13.89" length="58.54" shape="484.37,250.97 542.16,260.29"/>
    </edge>
    <edge id="gneE45" from="gneJ42" to="gneJ49" priority="-1">
        <lane id="gneE45_0" index="0" speed="13.89" length="244.58" shape="544.02,258.77 552.62,14.34"/>
    </edge>
    <edge id="gneE46" from="gneJ49" to="gneJ50" priority="-1">
        <lane id="gneE46_0" index="0" speed="13.89" length="27.50" shape="551.03,12.68 523.53,12.68"/>
    </edge>
    <edge id="gneE47" from="gneJ50" to="gneJ51" priority="-1">
        <lane id="gneE47_0" index="0" speed="13.89" length="314.11" shape="522.54,12.34 275.78,-182.03"/>
    </edge>
    <edge id="gneE48" from="gneJ51" to="gneJ52" priority="-1">
        <lane id="gneE48_0" index="0" speed="13.89" length="47.54" shape="268.43,-192.12 246.05,-234.06"/>
    </edge>
    <edge id="gneE49" from="gneJ52" to="gneJ53" priority="-1">
        <lane id="gneE49_0" index="0" speed="13.89" length="280.47" shape="244.19,-234.85 -25.04,-156.25"/>
    </edge>
    <edge id="gneE5" from="gneJ4" to="gneJ6" priority="-1">
        <lane id="gneE5_0" index="0" speed="13.89" length="36.78" shape="68.85,0.06 70.36,-36.69"/>
    </edge>
    <edge id="gneE50" from="gneJ53" to="gneJ34" priority="-1">
        <lane id="gneE50_0" index="0" speed="13.89" length="150.23" shape="-38.12,-154.24 -187.71,-140.36"/>
    </edge>
    <edge id="gneE51" from="gneJ12" to="gneJ53" priority="-1">
        <lane id="gneE51_0" index="0" speed="13.89" length="71.34" shape="-57.32,-81.36 -33.80,-148.71"/>
    </edge>
    <edge id="gneE52" from="gneJ5" to="gneJ54" priority="-1">
        <lane id="gneE52_0" index="0" speed="13.89" length="50.84" shape="15.85,-45.77 31.21,-94.23"/>
    </edge>
    <edge id="gneE53" from="gneJ54" to="gneJ55" priority="-1">
        <lane id="gneE53_0" index="0" speed="13.89" length="37.92" shape="31.71,-94.97 60.66,-119.46"/>
    </edge>
    <edge id="gneE54" from="gneJ56" to="gneJ55" priority="-1">
        <lane id="gneE54_0" index="0" speed="13.89" length="64.99" shape="124.14,-145.02 63.65,-121.25"/>
    </edge>
    <edge id="gneE55" from="gneJ56" to="gneJ51" priority="-1">
        <lane id="gneE55_0" index="0" speed="13.89" length="144.79" shape="125.33,-148.75 265.43,-185.28"/>
    </edge>
    <edge id="gneE56" from="gneJ57" to="gneJ58" priority="-1">
        <lane id="gneE56_0" index="0" speed="13.89" length="75.51" shape="-1.00,-163.57 56.53,-114.66"/>
    </edge>
    <edge id="gneE57" from="gneJ58" to="gneJ59" priority="-1">
        <lane id="gneE57_0" index="0" speed="13.89" length="126.88" shape="57.02,-114.38 176.29,-71.09"/>
    </edge>
    <edge id="gneE58" from="gneJ59" to="gneJ60" priority="-1">
        <lane id="gneE58_0" index="0" speed="13.89" length="35.12" shape="176.58,-68.23 146.63,-49.88"/>
    </edge>
    <edge id="gneE59" from="gneJ60" to="gneJ61" priority="-1">
        <lane id="gneE59_0" index="0" speed="13.89" length="116.26" shape="145.20,-49.75 36.99,-92.26"/>
    </edge>
    <edge id="gneE6" from="gneJ6" to="gneJ5" priority="-1">
        <lane id="gneE6_0" index="0" speed="13.89" length="44.67" shape="64.86,-42.16 20.24,-40.06"/>
    </edge>
    <edge id="gneE60" from="gneJ62" to="gneJ63" priority="-1">
        <lane id="gneE60_0" index="0" speed="13.89" length="51.34" shape="143.43,-204.43 160.82,-156.12"/>
    </edge>
    <edge id="gneE7" from="gneJ6" to="gneJ7" priority="-1">
        <lane id="gneE7_0" index="0" speed="13.89" length="21.98" shape="70.77,-47.92 71.33,-69.89"/>
    </edge>
    <edge id="gneE8" from="gneJ7" to="gneJ8" priority="-1">
        <lane id="gneE8_0" index="0" speed="13.89" length="5.97" shape="73.11,-71.44 79.04,-70.78"/>
    </edge>
    <edge id="gneE9" from="gneJ9" to="gneJ10" priority="-1">
        <lane id="gneE9_0" index="0" speed="13.89" length="27.18" shape="70.45,-56.26 97.50,-53.62"/>
    </edge>

    <junction id="gneJ0" type="dead_end" x="66.75" y="79.78" incLanes="" intLanes="" shape="66.80,78.61 63.61,78.46 63.40,79.30 63.18,79.60 62.88,79.83 62.50,79.97 62.04,80.04 62.22,83.23 64.67,82.61 65.56,81.96 66.20,81.07 66.62,79.95"/>
    <junction id="gneJ1" type="priority" x="3.63" y="83.25" incLanes="gneE0_0" intLanes=":gneJ1_0_0" shape="3.96,86.44 3.78,83.24 3.48,83.26 3.66,86.45">
        <request index="0" response="0" foes="0" cont="0"/>
    </junction>
    <junction id="gneJ10" type="dead_end" x="97.34" y="-52.03" incLanes="gneE9_0" intLanes="" shape="97.65,-55.21 97.34,-52.03"/>
    <junction id="gneJ11" type="priority" x="-17.48" y="-34.21" incLanes="gneE10_0" intLanes=":gneJ11_0_0" shape="-16.81,-31.08 -17.48,-34.21 -19.90,-32.11 -19.00,-31.36 -18.50,-31.14 -17.97,-31.02 -17.41,-31.00">
        <request index="0" response="0" foes="0" cont="0"/>
    </junction>
    <junction id="gneJ12" type="priority" x="-56.42" y="-79.09" incLanes="gneE11_0 gneE13_0" intLanes=":gneJ12_4_0 :gneJ12_5_0 :gneJ12_2_0 :gneJ12_3_0" shape="-57.19,-75.09 -54.77,-77.19 -55.61,-78.44 -55.84,-79.04 -55.93,-79.64 -55.90,-80.22 -55.74,-80.80 -58.83,-81.88 -59.66,-79.83 -60.04,-79.15 -60.47,-78.49 -61.00,-77.70 -61.68,-76.61 -58.95,-74.95 -58.41,-75.53 -58.12,-75.62 -57.82,-75.58 -57.51,-75.40">
        <request index="0" response="1100" foes="1100" cont="1"/>
        <request index="1" response="1000" foes="1000" cont="1"/>
        <request index="2" response="0000" foes="0001" cont="0"/>
        <request index="3" response="0000" foes="0011" cont="0"/>
    </junction>
    <junction id="gneJ13" type="dead_end" x="-39.26" y="-56.65" incLanes="" intLanes="" shape="-39.26,-56.65 -39.13,-53.45"/>
    <junction id="gneJ14" type="priority" x="-70.94" y="-55.33" incLanes="gneE12_0" intLanes=":gneJ14_0_0 :gneJ14_1_0 :gneJ14_2_0" shape="-67.43,-52.27 -67.56,-55.47 -69.33,-55.57 -69.85,-55.77 -70.13,-56.06 -70.17,-56.45 -69.96,-56.93 -72.69,-58.60 -74.03,-56.75 -74.68,-56.10 -75.33,-55.64 -75.97,-55.35 -76.60,-55.25 -76.56,-52.05 -74.93,-51.91 -74.47,-51.71 -74.26,-51.43 -74.28,-51.06 -74.54,-50.60 -71.99,-48.66 -70.29,-50.63 -69.51,-51.33 -68.77,-51.84 -68.07,-52.15">
        <request index="0" response="000" foes="000" cont="0"/>
        <request index="1" response="000" foes="000" cont="0"/>
        <request index="2" response="000" foes="000" cont="0"/>
    </junction>
    <junction id="gneJ15" type="priority" x="-104.59" y="-11.11" incLanes="gneE14_0 gneE23_0" intLanes=":gneJ15_0_0 :gneJ15_2_0" shape="-103.93,-7.91 -100.80,-8.55 -100.68,-9.96 -100.35,-10.83 -99.84,-11.82 -99.14,-12.92 -98.27,-14.13 -100.82,-16.07 -101.96,-15.21 -102.85,-14.85 -103.94,-14.55 -105.24,-14.29 -106.75,-14.09 -106.40,-10.91 -105.32,-10.67 -104.88,-10.26 -104.50,-9.66 -104.18,-8.88">
        <request index="0" response="00" foes="10" cont="0"/>
        <request index="1" response="01" foes="01" cont="1"/>
    </junction>
    <junction id="gneJ16" type="priority" x="-99.31" y="14.62" incLanes="gneE15_0" intLanes=":gneJ16_0_0" shape="-96.18,13.98 -99.31,14.62 -96.12,14.92 -96.10,14.57 -96.10,14.45 -96.11,14.32 -96.14,14.18">
        <request index="0" response="0" foes="0" cont="0"/>
    </junction>
    <junction id="gneJ17" type="priority" x="-101.95" y="42.34" incLanes="gneE16_0" intLanes=":gneJ17_0_0" shape="-98.76,42.64 -101.95,42.34 -99.92,44.81 -99.33,44.20 -99.12,43.85 -98.95,43.47 -98.83,43.07">
        <request index="0" response="0" foes="0" cont="0"/>
    </junction>
    <junction id="gneJ18" type="priority" x="-134.95" y="69.40" incLanes="gneE17_0" intLanes=":gneJ18_0_0" shape="-132.52,71.55 -134.55,69.07 -134.84,69.32 -134.93,69.41 -135.02,69.52 -135.11,69.65 -135.23,69.84">
        <request index="0" response="0" foes="0" cont="0"/>
    </junction>
    <junction id="gneJ19" type="priority" x="-136.27" y="91.17" incLanes="gneE18_0" intLanes=":gneJ19_0_0" shape="-135.82,94.35 -136.00,91.15 -136.20,91.17 -136.27,91.18 -136.34,91.19 -136.53,91.23">
        <request index="0" response="0" foes="0" cont="0"/>
    </junction>
    <junction id="gneJ2" type="dead_end" x="5.61" y="78.63" incLanes="" intLanes="" shape="5.61,78.63 2.42,78.39"/>
    <junction id="gneJ20" type="priority" x="-150.79" y="94.47" incLanes="gneE19_0 gneE20_0" intLanes=":gneJ20_0_0 :gneJ20_1_0 :gneJ20_2_0 :gneJ20_4_0" shape="-144.03,96.22 -144.74,93.10 -145.55,93.14 -145.74,93.02 -145.79,92.80 -145.71,92.48 -145.48,92.05 -148.18,90.35 -149.60,92.45 -150.07,93.03 -150.37,93.28 -150.52,93.21 -150.50,92.83 -153.65,92.27 -153.97,94.66 -154.18,97.99 -154.44,99.44 -155.05,101.08 -156.19,103.14 -153.47,104.84 -151.91,102.50 -150.34,100.53 -148.77,98.91 -147.19,97.65 -145.61,96.76">
        <request index="0" response="0000" foes="0100" cont="0"/>
        <request index="1" response="0000" foes="1100" cont="0"/>
        <request index="2" response="0011" foes="0011" cont="0"/>
        <request index="3" response="0010" foes="0010" cont="1"/>
    </junction>
    <junction id="gneJ21" type="priority" x="-146.17" y="68.08" incLanes="gneE21_0" intLanes=":gneJ21_0_0" shape="-146.26,67.53 -149.42,68.07 -146.27,68.63 -146.20,68.22 -146.19,68.08 -146.20,67.94 -146.23,67.76">
        <request index="0" response="0" foes="0" cont="0"/>
    </junction>
    <junction id="gneJ22" type="priority" x="-158.70" y="-5.18" incLanes="gneE22_0" intLanes=":gneJ22_0_0 :gneJ22_1_0" shape="-161.18,-0.70 -158.03,-1.24 -157.96,-3.48 -157.54,-4.30 -156.86,-4.94 -155.92,-5.37 -154.72,-5.62 -155.07,-8.80 -157.44,-8.98 -158.34,-9.44 -159.04,-10.15 -159.54,-11.10 -159.85,-12.29 -163.01,-11.78">
        <request index="0" response="00" foes="00" cont="0"/>
        <request index="1" response="00" foes="00" cont="0"/>
    </junction>