<?xml version="1.0" encoding="UTF-8"?>

<!-- generated on 09/23/19 12:38:48 by Eclipse SUMO duarouter Version 1.3.1
<configuration xmlns:xsi="http://www.w3.org/2001/XMLSchema-instance" xsi:noNamespaceSchemaLocation="http://sumo.dlr.de/xsd/duarouterConfiguration.xsd">

    <input>
        <net-file value="osm.net.xml"/>
        <route-files value="osm.ship.trips.xml"/>
    </input>

    <output>
        <output-file value="osm.ship.trips.xml.tmp"/>
        <write-trips value="true"/>
    </output>

    <time>
        <begin value="0"/>
        <end value="3600.0"/>
    </time>

    <report>
        <no-warnings value="true"/>
        <ignore-errors value="true"/>
        <no-step-log value="true"/>
    </report>

</configuration>
-->

<routes xmlns:xsi="http://www.w3.org/2001/XMLSchema-instance" xsi:noNamespaceSchemaLocation="http://sumo.dlr.de/xsd/routes_file.xsd">
    <vType id="ship_ship" vClass="ship"/>
    <trip id="ship0" type="ship_ship" depart="0.00" departSpeed="max" from="4446691" to="-4446691"/>
    <trip id="ship1" type="ship_ship" depart="710.07" departSpeed="max" from="-158855766" to="-4446691"/>
    <trip id="ship2" type="ship_ship" depart="1420.14" departSpeed="max" from="4446691" to="158855766"/>
    <trip id="ship3" type="ship_ship" depart="2130.21" departSpeed="max" from="4446691" to="-4446691"/>
    <trip id="ship4" type="ship_ship" depart="2840.27" departSpeed="max" from="-158855766" to="-4446691"/>
    <trip id="ship5" type="ship_ship" depart="3550.34" departSpeed="max" from="-158855766" to="158855766"/>
</routes>
