<?xml version="1.0" encoding="UTF-8"?>

<!-- generated on 09/18/19 15:07:42 by Eclipse SUMO duarouter Version 1.3.1
<configuration xmlns:xsi="http://www.w3.org/2001/XMLSchema-instance" xsi:noNamespaceSchemaLocation="http://sumo.dlr.de/xsd/duarouterConfiguration.xsd">

    <input>
        <net-file value="osm.net.xml"/>
        <additional-files value="osm_stops.add.xml,osm_pt.rou.xml"/>
        <route-files value="osm.pedestrian.trips.xml"/>
    </input>

    <output>
        <output-file value="osm.pedestrian.rou.xml"/>
        <alternatives-output value="osm.pedestrian.rou.alt.xml"/>
    </output>

    <time>
        <begin value="0"/>
        <end value="3600.0"/>
    </time>

    <report>
        <no-warnings value="true"/>
        <ignore-errors value="true"/>
        <no-step-log value="true"/>
    </report>

</configuration>
-->

<routes xmlns:xsi="http://www.w3.org/2001/XMLSchema-instance" xsi:noNamespaceSchemaLocation="http://sumo.dlr.de/xsd/routes_file.xsd">
    <vType id="ped_pedestrian" vClass="pedestrian"/>
    <person id="ped0" type="ped_pedestrian" depart="0.00">
        <walk edges="283006421#0 456662392#1 456662392#0 150937132#0 -31306520#0 -150937047#3"/>
    </person>
    <person id="ped1" type="ped_pedestrian" depart="10.15">
        <walk edges="-426572490#4 -426572490#5 150937163#0 23429732#0 23429732#1 -52764138#3 264945980#0 264945980#1" busStop="598350419"/> <!-- Wasserwerk Friedrichshagen -->
        <ride busStop="254100382" lines="61:0" intended="pt_tram_61:0.0" depart="783.00"/> <!-- Fürstenwalder Damm -->
        <walk edges="-724688434#0 -724688434#1 -724688434#2 -35096784#0"/>
    </person>
    <person id="ped4" type="ped_pedestrian" depart="40.61">
        <walk edges="151237831#9 151237831#7 151237827#0 151237827#1 151237827#2 151237827#3 151237827#4 151237827#6 151237827#7 -283006412#2 -283006412#1 -283006412#0 30689380#0" busStop="3890748378"/> <!-- Marktplatz Friedrichshagen -->
        <ride busStop="1883472919" lines="60:1" intended="pt_tram_60:1.0" depart="511.00"/> <!-- Altes Wasserwerk -->
        <walk edges="457284537#0 457284537#1" busStop="349055255"/> <!-- Altes Wasserwerk -->
        <walk edges="457284539#1 -150937110#0"/>
    </person>
    <person id="ped5" type="ped_pedestrian" depart="50.76">
        <walk edges="-336735697#0 -336735697#2 -336735697#3 -336735697#4 -336735697#5 -336735697#6 173640273#3 193875645#0 193875645#3 -329190066#0 217386905 25000125#2 331318342#0 331318342#1 331318342#2 331318342#3 331318342#4 331318342#5 331318342#6 331318342#8 410646532#0" busStop="271779546"/> <!-- Spreestraße -->
        <ride busStop="3890748385" lines="61:0" intended="pt_tram_61:0.1" depart="1537.00"/> <!-- Müggelseedamm/Bölschestraße -->
        <walk edges="682460125#1 462832355#2 -331318343#4 -331318343#3 -331318343#2 25016105"/>
    </person>
    <person id="ped6" type="ped_pedestrian" depart="60.91">
        <walk edges="-150937052 520100576#0 520100576#1 594582762 594582763 9628124#0 -9628124#1 -9628124#2 43167434#2 43167434#1 43167434#0 -456662393 -283006421#2 -283006421#1 -283006421#0 456662392#1 456662392#0 150937132#0 -31306520#0 -31306520#1 -31306520#2 -31306520#3 -31306520#4 -31306520#5 -31306520#6 -31306481#0 -31306481#1 -31306481#2"/>
    </person>
    <person id="ped7" type="ped_pedestrian" depart="71.06">
        <walk edges="294991110#1 294991110#2 23045996#3 23045996#4 -52710327#0 -52710327#1 -52710327#2 -52710327#3 -37849716#0 -37849716#1 -328400400#0 -328400400#1 -328400400#2 25799015"/>
    </person>
    <person id="ped8" type="ped_pedestrian" depart="81.21">
        <walk edges="-336735697#6 173640273#3 173640273#2" busStop="349047807"/> <!-- Hirschgarten -->
        <ride busStop="349050439" lines="61:0" intended="pt_tram_61:0.0" depart="174.00"/> <!-- Wassersportzentrum -->
        <walk edges="26489720#3 217386899#0 217386899#1 217386899#2 217386899#3 26489577#3 26489577#4"/>
    </person>
    <person id="ped9" type="ped_pedestrian" depart="91.37">
        <walk edges="38095508#0 150103636 173640273#4 173640273#3 173640273#2 173640273#1 173640273#0 75252111#4 75252111#2 75252111#1 75252111#0 31091036#16 31091036#15 31091036#14 31091036#13 31091036#12 31091036#11 31091036#10 31091036#9 31091036#8 31091036#7 31091036#6 31091036#5" busStop="349047813"/> <!-- Mühlweg -->
        <ride busStop="3890748391" lines="60:1" intended="pt_tram_60:1.1" depart="1438.00"/> <!-- S Friedrichshagen -->
        <walk edges="-9628124#0 -9628124#1 -9628124#2 43167434#2 43167434#1 43167434#0 -456662393 -283006421#2 -283006421#1 -283006421#0 456662392#1 456662392#0 150937132#0 -31306520#0 -31306520#1 -31306520#2 -31306520#3 -31306520#4 130796740#4 -433933817#1 -433933817#0 -130796741"/>
    </person>
    <person id="ped10" type="ped_pedestrian" depart="101.52">
        <walk edges="37849792#0 26489522#3 26489522#2 26489522#1 26489522#0 9702843#1 191238427#0 25016105 331318343#1 331318343#0 25000104#7 25000104#6 25000104#5 25000104#4 25000104#3 25000104#2 410646532#1 410646532#0 331318342#8"/>
    </person>
    <person id="ped11" type="ped_pedestrian" depart="111.67">
        <walk edges="-723757589#0 -25000112#8 -25000112#7 -25000112#6 -25000112#5 -25000112#4 -25000112#3 -25000112#2 -25000112#1 -25000112#0 25194873#3 25194873#0 -150937119#2 23463721#3 23463721#2 23463721#1 23463721#0 426572490#0 -150937052 520100576#0 520100576#1 594582762 594582763 9628124#0 -9628124#1 -9628124#2 25307868#4 -25307868#3 461015804 206798692#1 54428875#1 54428875#2 328400408#0 328400402 31307043#2 31307043#1 67196896 34022544#3 34022544#2 34022544#1 34022544#0 328400411#3 -37849716#1 -37849716#0 217390621 -26192423"/>
    </person>
    <person id="ped12" type="ped_pedestrian" depart="121.82">
        <walk edges="682460124#1" busStop="3890748385"/> <!-- Müggelseedamm/Bölschestraße -->
        <ride busStop="3890748380" lines="60:0" intended="pt_tram_60:0.0" depart="249.00"/> <!-- Marktplatz Friedrichshagen -->
        <walk edges="30689380#0 30689380#1 723757292 723757291#0 723757291#1 723757291#3 723757291#4 723757291#5 723757291#6 723757291#7 723757291#8 -723757291#9 -723757291#10 -723757291#11 -723757291#12"/>
    </person>
    <person id="ped13" type="ped_pedestrian" depart="131.97">
        <walk edges="-25000113#13 -25000113#11 -25000113#10 -25000113#8"/>
    </person>
    <person id="ped14" type="ped_pedestrian" depart="142.12">
        <walk edges="441521936#0 441521967#0 441521967#1 441521967#2 272111660#0 26489577#8 196624981#4 -196624981#3 -196624981#2 -196624981#1 355340612 -353906000#3 26489647#1"/>
    </person>
    <person id="ped15" type="ped_pedestrian" depart="152.28">
        <walk edges="37849792#3 26489523#4 723752286 723754577 723752287 723754576 266454541#0 48551276 9702843#1 9702843#0 25307934#0 638460947#1 638460947#0 638460946 328253843#2 328253843#1 328253843#0 30689380#1 30689380#0 -283006412#0 -283006412#1 -283006412#2 151237827#7 151237827#6 151237827#4 151237827#3 151237827#2 151237827#1 151237827#0 -151237831#7 -151237831#9 -151237831#10 -151237831#11 -151237831#12 -151237831#14 353701668#0"/>
    </person>
    <person id="ped16" type="ped_pedestrian" depart="162.43">
        <walk edges="25798306#1 25798306#2 25798306#3 25798306#4 25798306#5 -35321083#0 326297271 150937047#7 150937047#6 150937047#5 150937047#4 150937047#3 -31306520#0 150937132#0 456662392#0 456662392#1 -283006421#0 -283006421#1 -283006421#2 -456662393 43167434#0 43167434#1 43167434#2 -9628124#2 9628124#1 9628124#0 594582763 594582762" busStop="1883458398"/> <!-- S Friedrichshagen -->
        <ride busStop="253943504" lines="61:0" intended="pt_tram_61:0.2" depart="3017.00"/> <!-- Fürstenwalder Damm/Müggelseedamm -->
        <walk edges="-339319748#1 339319748#2 -43167423 43167419#5 43167419#4 72407049#0"/>
    </person>
    <person id="ped17" type="ped_pedestrian" depart="172.58">
        <walk edges="148614183#0 148614183#1 148614183#2 148614183#3 148614183#4 148614183#5 148614183#6 -25799283#1 -25799283#0 25374266 -25374267 -587260134#1 -587260134#0 -35403555#2 35403691#0 35403691#1 587687958#0 587687958#1 -587291621 -35414072#0 -587687968#1 587687968#0 25799153#8"/>
    </person>
    <person id="ped18" type="ped_pedestrian" depart="182.73">
        <walk edges="426572490#1 23463721#0 23463721#1 23463721#2 23463721#3 150937119#2 25194873#1 -25016103#10 -25016103#9 -25016103#8 -25016103#7 25016103#6 25016103#5 25016103#4 25016103#3 -462852147#0 -462852147#1 26624363#2"/>
    </person>
    <person id="ped19" type="ped_pedestrian" depart="192.88">
        <walk edges="44329176#4 353619697#0 353619687#3 353619687#2 353619687#1 353619694#0 520100578 353701672#2 353701672#1 353701671#1 -723757291#7 -723757291#6 -723757291#5 -723757291#4 -723757291#3 -723757291#1 -723757291#0 -723757292 -723757293 -150937060 25194206#0 25194206#1 25194206#2 150937131#0 154754277 25192964#0 25192964#1 25192964#2 -150937110#3 150937110#2 150937110#1 150937110#0 -25000113#16 -25000113#17 -279125376#0 -191237727#1 26396367#0"/>
    </person>
    <person id="ped20" type="ped_pedestrian" depart="203.03">
        <walk edges="339319748#1 -339319748#0 264945980#6 264945980#5 264945980#4 264945980#3 264945980#2 264945980#1" busStop="1823189338"/> <!-- Wasserwerk Friedrichshagen -->
        <ride busStop="3890748370" lines="61:1" intended="pt_tram_61:1.1" depart="1780.00"/> <!-- Drachholzstraße -->
        <walk edges="-283006412#5 460345888 -151237805#5 -151237805#4 -151237805#3 -151237805#2 -151237805#1"/>
    </person>
    <person id="ped21" type="ped_pedestrian" depart="213.19">
        <walk edges="-353701675#0 353701675#0 -151237831#10 -151237831#9 -151237831#7 151237827#0 151237827#1 151237827#2 151237827#3 151237827#4 151237827#6 151237827#7 -283006412#2 -283006412#1 283006412#0 151237809#0 124907823#1 124907823#0 150937060 -25194206#0 25194206#1 25194206#2 150937131#0 154754277 25192964#0 25192964#1 25192964#2 -150937110#3 150937110#2 150937110#1 -457284539#1"/>
    </person>
    <person id="ped22" type="ped_pedestrian" depart="223.34">
        <walk edges="-221885376 -272111635#4 -25192970 217390587 -217390627#0 -217390627#1 589830402 25799297#4" busStop="319242587"/> <!-- S Hirschgarten -->
        <walk edges="294991110#0 294991101 294991103#1 -294991095 294991104#1 -23045995#1 -35403473#1 -35403473#0"/>
    </person>
    <person id="ped23" type="ped_pedestrian" depart="233.49">
        <walk edges="-25016104 25016104 -25000104#3 -25000104#4 -151237831#0 -151237831#1 -151237831#2 -151237831#3 -151237831#4 -151237831#5 -151237831#6 -151237831#7 -151237831#9 -151237831#10 -151237831#11 -151237831#12 -151237831#14 -151237831#15 151237846#1 151237846#0 151237817#4" busStop="349058473"/> <!-- Ahornallee -->
        <ride busStop="3890748391" lines="60:1" intended="pt_tram_60:1.1" depart="1511.00"/> <!-- S Friedrichshagen -->
        <walk edges="-9628124#0 -9628124#1 -9628124#2 43167434#2 43167434#1 43167434#0 328399245 37849738#6 37849738#5 37849738#4 37849738#3 37849738#2 37849738#1 37849738#0 -43169787#1 -43169787#0"/>
    </person>
    <person id="ped24" type="ped_pedestrian" depart="243.64">
        <walk edges="283006412#4 283006412#3 283006412#2 -142540752#0 128020893#3"/>
    </person>
    <person id="ped25" type="ped_pedestrian" depart="253.79">
        <walk edges="141520964#1 44773369 31091036#9 31091036#10" busStop="1844135182"/> <!-- Westendsiedlung -->
        <ride busStop="1906474291" lines="60:0" intended="pt_tram_60:0.0" depart="653.00"/> <!-- Hirschgarten -->
        <walk edges="193875645#0 193875645#3 -329190066#0"/>
    </person>
    <person id="ped26" type="ped_pedestrian" depart="263.94">
        <walk edges="-38095779#1 25016109#0 279125395#0 279125395#1 279125395#2 279125395#3 217386901#0 217386901#1 217386901#2 31091036#13 172696041#1 -441521950 -15228215#3 25799375 217390584#0 217390584#1 90212653" busStop="319242587"/> <!-- S Hirschgarten -->
        <walk edges="294991110#0 294991101 294991103#1 -294991095 294991104#1 -23045995#1 23045995#2 -587687976#0 35414073#0 587291619#0 587291619#1 589857261 -587687959#1 -25799153#11 -25799153#13 -25799153#14 -25799153#15 25799153#16 25799153#17 587687975#1"/>
    </person>
    <person id="ped27" type="ped_pedestrian" depart="274.10">
        <walk edges="294991103#0 294991103#1 -294991095 294991104#1 23045996#2 23045996#3 23045996#4 25374266 -25799283#0 -25799283#1 -25332283#0 -25332283#1 -25332283#2 -25332283#3 -25332283#4 196624982#1 196624981#4 -196624981#3 -196624981#2 -196624981#1 355340612 -353906000#3 -353906000#2 -353906000#1 353906000#0 355340606 26489814#1 26489814#0 217386887#3 217386887#2 26489808#0"/>
    </person>
    <person id="ped28" type="ped_pedestrian" depart="284.25">
        <walk edges="-26489647#0 -26489647#1 -353906000#2 -353906000#1 353906000#0 355340606 26489814#1 44329177#0 44329177#1 353619697#4 353619691#0 353619698#6"/>
    </person>
    <person id="ped29" type="ped_pedestrian" depart="294.40">
        <walk edges="-26407379#0 -26489808#1 -26489808#0 217386887#1 217386887#0 26280393 410646532#1 410646532#0" busStop="1883502289"/> <!-- Spreestraße -->
        <ride busStop="1906474291" lines="61:1" intended="pt_tram_61:1.0" depart="1027.00"/> <!-- Hirschgarten -->
        <walk edges="173640273#2" busStop="349047807"/> <!-- Hirschgarten -->
        <ride busStop="349047810" lines="60:1" intended="pt_tram_60:1.1" depart="1295.00"/> <!-- Westendsiedlung -->
        <walk edges="31091036#10 31091036#11 -148614178 148614183#11"/>
    </person>
    <person id="ped30" type="ped_pedestrian" depart="304.55">
        <walk edges="78061251#0 -336735697#2 -336735697#3 -38095492#0 -38095492#1 78061245#0 78061245#1 217386903#0 217386903#1 148614183#15 148614183#14 148614183#13 148614183#12 148614183#11 148614183#10 -148614183#9 25192969#0 25192969#1 25192969#2 25192969#3 25192969#4 25192969#5 25332283#2 25332283#3 25332283#4 31091036#6 31091036#5" busStop="349047813"/> <!-- Mühlweg -->
        <ride busStop="3890748391" lines="60:1" intended="pt_tram_60:1.1" depart="1438.00"/> <!-- S Friedrichshagen -->
        <walk edges="-9628124#0 -9628124#1 -9628124#2 43167434#2 43167434#1 43167434#0 456662393 283006421#2"/>
    </person>
    <person id="ped31" type="ped_pedestrian" depart="314.70">
        <walk edges="25799239#7 -25799239#6 -25799239#5 -25799239#4 -25799239#3 -25799239#2 -25799239#1 -25799239#0 -23045996#0 -23045996#2 -23045996#3 -25374267 -52710327#0 -52710327#1 -52710327#2 -52710327#3 -37849716#0 -37849716#1 328400400#0 328400400#1"/>
    </person>
    <person id="ped32" type="ped_pedestrian" depart="324.85">
        <walk edges="432116461#3 279808663#1 43167434#2 43167434#1 43167434#0 328399245 328400408#2 328400408#1 328400408#0 328400402 31307043#2 31307043#1 67196896 34022544#3 34022544#2 34022544#1 34022544#0 328400411#3 -37849716#1 -35403762 35967335#1"/>
    </person>
    <person id="ped33" type="ped_pedestrian" depart="335.01">
        <walk edges="-353892425 -353892426#0 201971559#0 456662393 43167434#0 43167434#1 43167434#2 -9628124#2 9628124#1 9628124#0 594582763 594582762" busStop="1883458398"/> <!-- S Friedrichshagen -->
        <ride busStop="349055083" lines="61:0" intended="pt_tram_61:0.0" depart="617.00"/> <!-- Hartlebenstraße -->
        <walk edges="23463724#0 -25194874#2 -25194874#1 -25194874#0 25194873#0 25194873#1 -25016103#10 -25016103#9 -25016103#8 -25016103#7 -25016103#6 -150937113#5 -150937113#4 -150937113#3 -150937113#2"/>
    </person>
    <person id="ped34" type="ped_pedestrian" depart="345.16">
        <walk edges="-587687960#0 587695671 587291618#0 35403629#1 35403629#0 584000599#5 -586676240 -586055414 -26192423 217390621 -37849716#0 -37849716#1 328400411#3 34022544#0 34022544#1 34022544#2 34022544#3 67196896 31307043#1 31307043#2 328400402 328400408#0 54428875#2 54428875#1 206798692#1 461015804 -25307868#3 25307868#4 -9628124#2 9628124#1 9628124#0 594582763 594582762 520100576#1 520100576#0 150937052 -266454540#9 -266454540#8 -266454540#7 150937124#0 384630166 -150937126#2 410646541 -384630164#0"/>
    </person>
    <person id="ped35" type="ped_pedestrian" depart="355.31">
        <walk edges="-32935932#2 -25815006 -32935932#0 -25815003#1 -25815003#0 -32936058#0 37282765#0 -37282765#1 -37282763 -37282765#5 -37282765#6 37253822 -25093637#1 326235670 176031336#2 176031336#1 25278250#2 25278250#1 25278250#0 176031367 23446494 23446497 23446498 23446496 26489522#4 26489522#3 26489522#2 26489522#1 26489522#0 9702843#1 9702843#0 25307934#0 462832355#0 682460124#1" busStop="3890748382"/> <!-- Müggelseedamm/Bölschestraße -->
        <ride busStop="1906474291" lines="61:1" intended="pt_tram_61:1.2" depart="3336.00"/> <!-- Hirschgarten -->
        <walk edges="173640273#3 173640273#4 173640273#5 -272111635#2 -272111635#4 -25192970 217390587 -217390627#0 -217390627#1 589830402"/>
    </person>
    <person id="ped36" type="ped_pedestrian" depart="365.46">
        <walk edges="457267747 25000113#7 25000113#5 -25000113#4 -25000113#3 -25000113#2 -25000113#1 -25307934#1 682460125#0 682460125#1" busStop="3890748382"/> <!-- Müggelseedamm/Bölschestraße -->
        <ride busStop="1906474291" lines="61:1" intended="pt_tram_61:1.0" depart="936.00"/> <!-- Hirschgarten -->
        <walk edges="173640273#2" busStop="349047807"/> <!-- Hirschgarten -->
        <ride busStop="349047813" lines="60:1" intended="pt_tram_60:1.1" depart="1295.00"/> <!-- Mühlweg -->
        <walk edges="31091036#5 31091036#6 -25332283#4 -25332283#3 -25332283#2 -25332283#1 -25332283#0 -25799283#1 -25799283#0 25374266 -25374267 -587260134#1 -587260134#0 -35403555#2 35403555#1 35414073#1 35414073#0 587291619#0 587695673 -587687959#0"/>
    </person>
    <person id="ped37" type="ped_pedestrian" depart="375.61">
        <walk edges="310306839#2 310306839#3 193875645#3 -329190066#0 217386905 25000125#2 331318342#0 331318342#1 331318342#2 331318342#3" busStop="349050439"/> <!-- Wassersportzentrum -->
        <ride busStop="3890748385" lines="61:0" intended="pt_tram_61:0.1" depart="1460.00"/> <!-- Müggelseedamm/Bölschestraße -->
        <walk edges="682460124#1" busStop="3890748382"/> <!-- Müggelseedamm/Bölschestraße -->
        <ride busStop="1883484180" lines="60:1" intended="pt_tram_60:1.1" depart="1778.00"/> <!-- Bruno-Wille-Straße -->
        <walk edges="-25000113#11 -25016103#0 -25016103#1 -25016103#2 -25192963#9 -25192963#8 150937116#0"/>
    </person>
    <person id="ped38" type="ped_pedestrian" depart="385.77">
        <walk edges="54428875#1 206798692#1 461015804 -25307868#2 -25307868#1 -25307868#0 283006414#0 283006414#1 283006414#2 193875628#0 193875628#1 193875628#2 193875628#3 31091036#0 31091036#1 31091036#2 31091036#3 148614177#2 221885377#0 217386895#2 217386895#1 217386893"/>
    </person>
    <person id="ped39" type="ped_pedestrian" depart="395.92">
        <walk edges="-38095495#1 -38095495#0 -38095492#1 78061245#0 78061245#1 217386903#0 217386903#1 148614183#15 148614183#14 148614183#13 148614183#12 148614183#11 148614183#10 -148614183#9 25192969#0 25192969#1 25192969#2 25192969#3 25192969#4 25192969#5 25332283#2 25332283#3 25332283#4 31091036#6 31091036#5" busStop="349047813"/> <!-- Mühlweg -->
        <ride busStop="349058473" lines="60:1" intended="pt_tram_60:1.1" depart="1438.00"/> <!-- Ahornallee -->
        <walk edges="151237817#4 151237846#0 151237846#1 -151237831#15 -151237831#14 -151237831#12 -151237831#11 -151237831#10 -151237831#9 -355345464#0 355345465 -355345465"/>
    </person>
    <person id="ped40" type="ped_pedestrian" depart="406.07">
        <walk edges="25799297#4 217390581#0 217390581#1 25799283#0 25799283#1 25332283#0 25332283#1 -25332283#2 -25332283#3 -25332283#4 31091036#6 31091036#5" busStop="349047813"/> <!-- Mühlweg -->
        <ride busStop="3890748391" lines="60:1" intended="pt_tram_60:1.1" depart="1438.00"/> <!-- S Friedrichshagen -->
        <walk edges="-9628124#0 -9628124#1 -9628124#2 43167434#2 43167434#1 43167434#0 328399245 -37849738#6"/>
    </person>
    <person id="ped41" type="ped_pedestrian" depart="416.22">
        <walk edges="26489523#2 378382064 378382066#1 37849792#4 26489522#0 48551276"/>
    </person>
    <person id="ped42" type="ped_pedestrian" depart="426.37">
        <walk edges="150937124#2 150937124#1 150937124#0 -266454540#6 -154754266 283006412#5 283006412#6 151237817#0 151237817#1 151237817#2 151237817#3 151237817#4 151237803#3" busStop="3890748363"/> <!-- Ahornallee -->
        <ride busStop="1906474291" lines="60:0" intended="pt_tram_60:0.1" depart="1717.00"/> <!-- Hirschgarten -->
        <walk edges="173640273#3 -336735697#6 -336735697#5 -336735697#4 -336735697#3"/>
    </person>
    <person id="ped43" type="ped_pedestrian" depart="436.52">
        <walk edges="9624204#5 9624204#4 9624204#3 9623625 -329190066#0 217386905 25000125#2 331318342#0 331318342#1 331318342#2 331318342#3" busStop="349050439"/> <!-- Wassersportzentrum -->
        <ride busStop="3890748385" lines="61:0" intended="pt_tram_61:0.1" depart="1460.00"/> <!-- Müggelseedamm/Bölschestraße -->
        <walk edges="682460124#1" busStop="3890748382"/> <!-- Müggelseedamm/Bölschestraße -->
        <ride busStop="1883472919" lines="60:1" intended="pt_tram_60:1.1" depart="1778.00"/> <!-- Altes Wasserwerk -->
        <walk edges="-723757589#1 143681196#0 143681196#1 143681196#2 150937110#3 -25192964#2 25192962#1 25192962#2"/>
    </person>
    <person id="ped44" type="ped_pedestrian" depart="446.68">
        <walk edges="-25000112#7 -384630981 -25194206#6 -25194206#5 -25194206#4 -25194206#3 -25194206#2 -25194206#1 -25194206#0 150937060 124907823#0 124907822 -30689380#0" busStop="3890748380"/> <!-- Marktplatz Friedrichshagen -->
        <ride busStop="3890748371" lines="60:0" intended="pt_tram_60:0.1" depart="1516.00"/> <!-- Drachholzstraße -->
        <walk edges="-283006412#6 460345888 -151237805#5"/>
    </person>
    <person id="ped45" type="ped_pedestrian" depart="456.83">
        <walk edges="-25192964#2 150937110#3 150937110#2 150937110#1 150937110#0 -25000113#16 -25000113#17 690827778 279125376#1 279125376#2 685460476#0 685460476#1 685460476#2 685460476#3 690827780 685460477#0 685460477#1 31091055 43167419#0 279808664#0 279808664#1 279125385 279125384"/>
    </person>
    <person id="ped46" type="ped_pedestrian" depart="466.98">
        <walk edges="37452318#2 -25799239#0 23045996#0 23045996#2 23045996#3 23045996#4 25374266 -25799283#0 -25799283#1 -25332283#0 -25332283#1 -25332283#2 -25332283#3 -25332283#4 31091036#6 31091036#5" busStop="349047813"/> <!-- Mühlweg -->
        <ride busStop="349058473" lines="60:1" intended="pt_tram_60:1.1" depart="1438.00"/> <!-- Ahornallee -->
        <walk edges="151237817#4 151237846#0"/>
    </person>
    <person id="ped47" type="ped_pedestrian" depart="477.13">
        <walk edges="-171091371#1 171091371#1 -31306481#4 -31306481#3 -31306481#2 -31306481#1 -31306481#0 -31306520#6 -31306520#5 -31306520#4 -31306520#3 -31306520#2 -31306520#1 -31306520#0 150937132#0 456662392#0 456662392#1 -283006421#0 -283006421#1 -283006421#2 -456662393 43167434#0 43167434#1 43167434#2 -25307868#4 -25307868#3 -25307868#2 -25307868#1 -25307868#0 283006414#0 283006414#1 283006414#2 193875628#0 193875628#1 193875628#2 193875628#3 31091036#0 31091036#1 31091036#2 31091036#3 31091036#4 31091036#5 31091036#6 31091036#7 31091036#8 31091036#9 31091036#10 31091036#11 31091036#12 31091036#13 172696041#1 -172696062#2 -172696062#1 -172696062#0 272111655 -148614175#0 148614183#17"/>
    </person>
    <person id="ped48" type="ped_pedestrian" depart="487.28">
        <walk edges="9624204#1 9624204#2 -9623625 329190066#0 217386905 25000125#1 25000125#0 75252111#4 75252111#2 75252111#1 75252111#0 31091036#16 31091036#15 31091036#14 31091036#13 31091036#12 31091036#11 31091036#10" busStop="349047810"/> <!-- Westendsiedlung -->
        <ride busStop="349058473" lines="60:1" intended="pt_tram_60:1.1" depart="1374.00"/> <!-- Ahornallee -->
        <walk edges="151237817#4 151237846#0 151237846#1 -151237831#15 -151237831#14 -151237804#3 25408839#0"/>
    </person>
    <person id="ped49" type="ped_pedestrian" depart="497.43">
        <walk edges="723757291#8 353701671#1 353701671#0 353619694#3 353619698#0 353619698#1 353619698#2 44329176#2 44329176#1"/>
    </person>
    <person id="ped50" type="ped_pedestrian" depart="507.59">
        <walk edges="-143681199#1 -143681199#0 -26396367#6 -26396367#7 -26396283#0 264945980#4 264945980#3 264945980#2 264945980#1" busStop="1823189338"/> <!-- Wasserwerk Friedrichshagen -->
        <ride busStop="3890748378" lines="61:1" intended="pt_tram_61:1.1" depart="1780.00"/> <!-- Marktplatz Friedrichshagen -->
        <walk edges="30689380#0 30689380#1 723757292 723757291#0 723757291#1 723757291#3 723757291#4 723757291#5 723757291#6 723757291#7 353701671#1 353701671#0 353619694#3"/>
    </person>
    <person id="ped51" type="ped_pedestrian" depart="517.74">
        <walk edges="328253843#2 328253843#1 328253843#0 30689380#1 30689380#0 -283006412#0 -283006412#1 -283006412#2 -283006412#3 -283006412#4 -283006412#5 -283006412#6 -283006412#7 -520100576#0 -520100576#1 -594582762" busStop="3890748391"/> <!-- S Friedrichshagen -->
        <walk edges="-9628124#0 -9628124#1 -9628124#2 43167434#2 43167434#1 43167434#0 -456662393 -283006421#2 -283006421#1 -283006421#0 456662392#1 456662392#0 150937132#0 -31306520#0 150937047#3 150937047#4 150937047#5 150937047#6 150937047#7 326297271 -35321083#0 25798306#5 25798306#4 25798306#3"/>
    </person>
    <person id="ped52" type="ped_pedestrian" depart="527.89">
        <walk edges="-38095779#1 331318342#1 331318342#2 331318342#3 331318342#4 331318342#5 331318342#6 331318342#8 410646532#0" busStop="271779546"/> <!-- Spreestraße -->
        <ride busStop="3890748385" lines="61:0" intended="pt_tram_61:0.1" depart="1537.00"/> <!-- Müggelseedamm/Bölschestraße -->
        <walk edges="682460125#1 682460125#0 -25307934#1 9702843#0 9702843#1 26489522#0 26489522#1 26489522#2 26489522#3 26489522#4 23446496 23446498 23446497 23446494 28609755"/>
    </person>
    <person id="ped53" type="ped_pedestrian" depart="538.04">
        <walk edges="-25192969#1 141520964#1 44773369 31091036#9 31091036#10" busStop="-1844135182"/> <!-- Westendsiedlung -->
        <walk edges="26489713#2 38095774#3 38095759#0 38095759#1 38095759#2" busStop="1844135181"/> <!-- Wassersportzentrum -->
        <walk edges="331318342#2 331318342#3" busStop="349050439"/> <!-- Wassersportzentrum -->
        <ride busStop="3890748385" lines="61:0" intended="pt_tram_61:0.1" depart="1460.00"/> <!-- Müggelseedamm/Bölschestraße -->
        <walk edges="682460125#1 462832355#2 -331318343#4 -331318343#3 -331318343#2 -331318343#1 -331318343#0 72442767#0 72442767#1 72442767#2 172696048#0"/>
    </person>
    <person id="ped54" type="ped_pedestrian" depart="548.19">
        <walk edges="194205728 37849792#2 26489523#4 723752286 723754577 723752287 723754576 266454541#0 48551276 9702843#1 9702843#0 25307934#0 638460947#1 638460947#0"/>
    </person>
    <person id="ped55" type="ped_pedestrian" depart="558.34">
        <walk edges="457267745 25000113#5 -25000113#4 -266454540#0 -266454540#1 -266454540#2 -266454540#3 -150937060 -124907823#0 -124907822" busStop="3890748380"/> <!-- Marktplatz Friedrichshagen -->
        <ride busStop="1906474291" lines="60:0" intended="pt_tram_60:0.1" depart="1516.00"/> <!-- Hirschgarten -->
        <walk edges="173640273#3 -336735697#6 -336735697#5 -336735697#4 -38095492#0"/>
    </person>
    <person id="ped56" type="ped_pedestrian" depart="568.50">
        <walk edges="25000125#2 331318342#0 331318342#1 331318342#2 331318342#3" busStop="349050439"/> <!-- Wassersportzentrum -->
        <ride busStop="3890748380" lines="61:0" intended="pt_tram_61:0.1" depart="1460.00"/> <!-- Marktplatz Friedrichshagen -->
        <walk edges="-124907822 -124907823#0 -150937060 -266454540#3"/>
    </person>
    <person id="ped57" type="ped_pedestrian" depart="578.65">
        <walk edges="52710467 52710463 424524892#1 424524892#2 408367260 -35403737#1 -35403737#0 37849607#0 37849607#1 -26192423 217390621 -37849716#0 -37849716#1 328400411#3 34022544#0 34022544#1 34022544#2 34022544#3 67196896 31307043#1 31307043#2 328400402 328400408#0 54428875#2 54428875#1 206798692#1 461015804 -25307868#3 25307868#4 -9628124#2 9628124#1 9628124#0 594582763 594582762" busStop="1883458398"/> <!-- S Friedrichshagen -->
        <ride busStop="254100382" lines="61:0" intended="pt_tram_61:0.1" depart="1817.00"/> <!-- Fürstenwalder Damm -->
        <walk edges="264945980#6 -420006965 154758779 -31091055 -685460477#1 -685460477#0 -690827780 685460476#3 -191237728#3 456662372#1"/>
    </person>
    <person id="ped58" type="ped_pedestrian" depart="588.80">
        <walk edges="-46854116#1 -46854116#2 -46854116#3 283006421#1 304398009#2 456662393 43167434#0 43167434#1 43167434#2 -25307868#4 -25307868#3 -25307868#2 -25307868#1 -25307868#0 283006414#0 283006414#1 283006414#2"/>
    </person>
    <person id="ped59" type="ped_pedestrian" depart="598.95">
        <walk edges="26489808#0 217386887#1 217386887#0 26280393 -25000104#2 -25000104#3 -25000104#4 25000104#5 25000104#6 25000104#7 331318343#0 331318343#1 25016105 191238427#0 9702843#1 26489522#0 26489522#1 26489522#2 26489522#3 26489522#4 23446496 23446498 23446497 23446494 176031367 25278250#0 25278250#1 25278250#2 176031336#1 176031336#2 326235670 -25093637#1 37253822 -37282765#6 -37282765#5 -37282763 -37282765#1 37282765#0 -25814985#1 -25815035#1 -25815035#0"/>
    </person>
    <person id="ped60" type="ped_pedestrian" depart="609.10">