<?xml version="1.0" encoding="UTF-8"?>
<!-- generated on 2019-09-23 12:38:23.233038 by $Id$
  options: -n osm.net.xml <doubleminus>seed 42 <doubleminus>fringe-factor 1 -p 10.151717 -o osm.pedestrian.trips.xml -e 3600 -r osm.pedestrian.rou.xml <doubleminus>vehicle-class pedestrian <doubleminus>persontrips <doubleminus>prefix ped <doubleminus>trip-attributes modes="public" <doubleminus>additional-files osm_stops.add.xml,osm_pt.rou.xml
-->
<routes xmlns:xsi="http://www.w3.org/2001/XMLSchema-instance" xsi:noNamespaceSchemaLocation="http://sumo.dlr.de/xsd/routes_file.xsd">
    <vType id="ped_pedestrian" vClass="pedestrian"/>
    <person id="ped0" depart="0.00" type="ped_pedestrian">
        <personTrip from="283006421#0" to="-150937047#3" modes="public"/>
    </person>
    <person id="ped1" depart="10.15" type="ped_pedestrian">
        <personTrip from="-426572490#4" to="-35096784#0" modes="public"/>
    </person>
    <person id="ped2" depart="20.30" type="ped_pedestrian">
        <personTrip from="353701676#1" to="317245516" modes="public"/>
    </person>
    <person id="ped3" depart="30.46" type="ped_pedestrian">
        <personTrip from="46829110#0" to="-25000104#4" modes="public"/>
    </person>
    <person id="ped4" depart="40.61" type="ped_pedestrian">
        <personTrip from="151237831#9" to="-150937110#0" modes="public"/>
    </person>
    <person id="ped5" depart="50.76" type="ped_pedestrian">
        <personTrip from="-336735697#0" to="25016105" modes="public"/>
    </person>
    <person id="ped6" depart="60.91" type="ped_pedestrian">
        <personTrip from="-150937052" to="-31306481#2" modes="public"/>
    </person>
    <person id="ped7" depart="71.06" type="ped_pedestrian">
        <personTrip from="294991110#1" to="25799015" modes="public"/>
    </person>
    <person id="ped8" depart="81.21" type="ped_pedestrian">
        <personTrip from="-336735697#6" to="26489577#4" modes="public"/>
    </person>
    <person id="ped9" depart="91.37" type="ped_pedestrian">
        <personTrip from="38095508#0" to="-130796741" modes="public"/>
    </person>
    <person id="ped10" depart="101.52" type="ped_pedestrian">
        <personTrip from="37849792#0" to="331318342#8" modes="public"/>
    </person>
    <person id="ped11" depart="111.67" type="ped_pedestrian">
        <personTrip from="-723757589#0" to="-26192423" modes="public"/>
    </person>
    <person id="ped12" depart="121.82" type="ped_pedestrian">
        <personTrip from="682460124#1" to="-723757291#12" modes="public"/>
    </person>
    <person id="ped13" depart="131.97" type="ped_pedestrian">
        <personTrip from="-25000113#13" to="-25000113#8" modes="public"/>
    </person>
    <person id="ped14" depart="142.12" type="ped_pedestrian">
        <personTrip from="441521936#0" to="26489647#1" modes="public"/>
    </person>
    <person id="ped15" depart="152.28" type="ped_pedestrian">
        <personTrip from="37849792#3" to="353701668#0" modes="public"/>
    </person>
    <person id="ped16" depart="162.43" type="ped_pedestrian">
        <personTrip from="25798306#1" to="72407049#0" modes="public"/>
    </person>
    <person id="ped17" depart="172.58" type="ped_pedestrian">
        <personTrip from="148614183#0" to="25799153#8" modes="public"/>
    </person>
    <person id="ped18" depart="182.73" type="ped_pedestrian">
        <personTrip from="426572490#1" to="26624363#2" modes="public"/>
    </person>
    <person id="ped19" depart="192.88" type="ped_pedestrian">
        <personTrip from="44329176#4" to="26396367#0" modes="public"/>
    </person>
    <person id="ped20" depart="203.03" type="ped_pedestrian">
        <personTrip from="339319748#1" to="-151237805#1" modes="public"/>
    </person>
    <person id="ped21" depart="213.19" type="ped_pedestrian">
        <personTrip from="-353701675#0" to="-457284539#1" modes="public"/>
    </person>
    <person id="ped22" depart="223.34" type="ped_pedestrian">
        <personTrip from="-221885376" to="-35403473#0" modes="public"/>
    </person>
    <person id="ped23" depart="233.49" type="ped_pedestrian">
        <personTrip from="-25016104" to="-43169787#0" modes="public"/>
    </person>
    <person id="ped24" depart="243.64" type="ped_pedestrian">
        <personTrip from="283006412#4" to="128020893#3" modes="public"/>
    </person>
    <person id="ped25" depart="253.79" type="ped_pedestrian">
        <personTrip from="141520964#1" to="-329190066#0" modes="public"/>
    </person>
    <person id="ped26" depart="263.94" type="ped_pedestrian">
        <personTrip from="-38095779#1" to="587687975#1" modes="public"/>
    </person>
    <person id="ped27" depart="274.10" type="ped_pedestrian">
        <personTrip from="294991103#0" to="26489808#0" modes="public"/>
    </person>
    <person id="ped28" depart="284.25" type="ped_pedestrian">
        <personTrip from="-26489647#0" to="353619698#6" modes="public"/>
    </person>
    <person id="ped29" depart="294.40" type="ped_pedestrian">
        <personTrip from="-26407379#0" to="148614183#11" modes="public"/>
    </person>
    <person id="ped30" depart="304.55" type="ped_pedestrian">
        <personTrip from="78061251#0" to="283006421#2" modes="public"/>
    </person>
    <person id="ped31" depart="314.70" type="ped_pedestrian">
        <personTrip from="25799239#7" to="328400400#1" modes="public"/>
    </person>
    <person id="ped32" depart="324.85" type="ped_pedestrian">
        <personTrip from="432116461#3" to="35967335#1" modes="public"/>
    </person>
    <person id="ped33" depart="335.01" type="ped_pedestrian">
        <personTrip from="-353892425" to="-150937113#2" modes="public"/>
    </person>
    <person id="ped34" depart="345.16" type="ped_pedestrian">
        <personTrip from="-587687960#0" to="-384630164#0" modes="public"/>
    </person>
    <person id="ped35" depart="355.31" type="ped_pedestrian">
        <personTrip from="-32935932#2" to="589830402" modes="public"/>
    </person>
    <person id="ped36" depart="365.46" type="ped_pedestrian">
        <personTrip from="457267747" to="-587687959#0" modes="public"/>
    </person>
    <person id="ped37" depart="375.61" type="ped_pedestrian">
        <personTrip from="310306839#2" to="150937116#0" modes="public"/>
    </person>
    <person id="ped38" depart="385.77" type="ped_pedestrian">
        <personTrip from="54428875#1" to="217386893" modes="public"/>
    </person>
    <person id="ped39" depart="395.92" type="ped_pedestrian">
        <personTrip from="-38095495#1" to="-355345465" modes="public"/>
    </person>
    <person id="ped40" depart="406.07" type="ped_pedestrian">
        <personTrip from="25799297#4" to="-37849738#6" modes="public"/>
    </person>
    <person id="ped41" depart="416.22" type="ped_pedestrian">
        <personTrip from="26489523#2" to="48551276" modes="public"/>
    </person>
    <person id="ped42" depart="426.37" type="ped_pedestrian">
        <personTrip from="150937124#2" to="-336735697#3" modes="public"/>
    </person>
    <person id="ped43" depart="436.52" type="ped_pedestrian">
        <personTrip from="9624204#5" to="25192962#2" modes="public"/>
    </person>
    <person id="ped44" depart="446.68" type="ped_pedestrian">
        <personTrip from="-25000112#7" to="-151237805#5" modes="public"/>
    </person>
    <person id="ped45" depart="456.83" type="ped_pedestrian">
        <personTrip from="-25192964#2" to="279125384" modes="public"/>
    </person>
    <person id="ped46" depart="466.98" type="ped_pedestrian">
        <personTrip from="37452318#2" to="151237846#0" modes="public"/>
    </person>
    <person id="ped47" depart="477.13" type="ped_pedestrian">
        <personTrip from="-171091371#1" to="148614183#17" modes="public"/>
    </person>
    <person id="ped48" depart="487.28" type="ped_pedestrian">
        <personTrip from="9624204#1" to="25408839#0" modes="public"/>
    </person>
    <person id="ped49" depart="497.43" type="ped_pedestrian">
        <personTrip from="723757291#8" to="44329176#1" modes="public"/>
    </person>
    <person id="ped50" depart="507.59" type="ped_pedestrian">
        <personTrip from="-143681199#1" to="353619694#3" modes="public"/>
    </person>
    <person id="ped51" depart="517.74" type="ped_pedestrian">
        <personTrip from="328253843#2" to="25798306#3" modes="public"/>
    </person>
    <person id="ped52" depart="527.89" type="ped_pedestrian">
        <personTrip from="-38095779#1" to="28609755" modes="public"/>
    </person>
    <person id="ped53" depart="538.04" type="ped_pedestrian">
        <personTrip from="-25192969#1" to="172696048#0" modes="public"/>
    </person>
    <person id="ped54" depart="548.19" type="ped_pedestrian">
        <personTrip from="194205728" to="638460947#0" modes="public"/>
    </person>
    <person id="ped55" depart="558.34" type="ped_pedestrian">
        <personTrip from="457267745" to="-38095492#0" modes="public"/>
    </person>
    <person id="ped56" depart="568.50" type="ped_pedestrian">
        <personTrip from="25000125#2" to="-266454540#3" modes="public"/>
    </person>
    <person id="ped57" depart="578.65" type="ped_pedestrian">
        <personTrip from="52710467" to="456662372#1" modes="public"/>
    </person>
    <person id="ped58" depart="588.80" type="ped_pedestrian">
        <personTrip from="-46854116#1" to="283006414#2" modes="public"/>
    </person>
    <person id="ped59" depart="598.95" type="ped_pedestrian">
        <personTrip from="26489808#0" to="-25815035#0" modes="public"/>
    </person>
    <person id="ped60" depart="609.10" type="ped_pedestrian">
        <personTrip from="355340608" to="25798456#0" modes="public"/>
    </person>
    <person id="ped61" depart="619.25" type="ped_pedestrian">
        <personTrip from="37253829" to="25408839#3" modes="public"/>
    </person>
    <person id="ped62" depart="629.41" type="ped_pedestrian">
        <personTrip from="-105006227#0" to="-587695675" modes="public"/>
    </person>
    <person id="ped63" depart="639.56" type="ped_pedestrian">
        <personTrip from="-148614183#2" to="587672075#1" modes="public"/>
    </person>
    <person id="ped64" depart="649.71" type="ped_pedestrian">
        <personTrip from="457284539#1" to="43167419#1" modes="public"/>
    </person>
    <person id="ped65" depart="659.86" type="ped_pedestrian">
        <personTrip from="-511123861#1" to="-151237831#5" modes="public"/>
    </person>
    <person id="ped66" depart="670.01" type="ped_pedestrian">
        <personTrip from="457284538" to="589868381#2" modes="public"/>
    </person>
    <person id="ped67" depart="680.17" type="ped_pedestrian">
        <personTrip from="-24751914#4" to="245124126" modes="public"/>
    </person>
    <person id="ped68" depart="690.32" type="ped_pedestrian">
        <personTrip from="-191237728#1" to="35414073#1" modes="public"/>
    </person>
    <person id="ped69" depart="700.47" type="ped_pedestrian">
        <personTrip from="355340616#0" to="-25798244#0" modes="public"/>
    </person>
    <person id="ped70" depart="710.62" type="ped_pedestrian">
        <personTrip from="23045995#2" to="25799153#2" modes="public"/>
    </person>
    <person id="ped71" depart="720.77" type="ped_pedestrian">
        <personTrip from="-38095508#0" to="456662386" modes="public"/>
    </person>
    <person id="ped72" depart="730.92" type="ped_pedestrian">
        <personTrip from="15228215#0" to="-32936058#2" modes="public"/>
    </person>
    <person id="ped73" depart="741.08" type="ped_pedestrian">
        <personTrip from="25798345#4" to="353701668#0" modes="public"/>
    </person>
    <person id="ped74" depart="751.23" type="ped_pedestrian">
        <personTrip from="-31306481#8" to="-584000600" modes="public"/>
    </person>
    <person id="ped75" depart="761.38" type="ped_pedestrian">
        <personTrip from="9623807" to="294991110#1" modes="public"/>
    </person>
    <person id="ped76" depart="771.53" type="ped_pedestrian">
        <personTrip from="172696059#1" to="25194206#6" modes="public"/>
    </person>
    <person id="ped77" depart="781.68" type="ped_pedestrian">
        <personTrip from="-25307868#3" to="-35321083#0" modes="public"/>
    </person>
    <person id="ped78" depart="791.83" type="ped_pedestrian">
        <personTrip from="-723757291#6" to="26489577#2" modes="public"/>
    </person>
    <person id="ped79" depart="801.99" type="ped_pedestrian">
        <personTrip from="-353905998" to="-336735697#5" modes="public"/>
    </person>
    <person id="ped80" depart="812.14" type="ped_pedestrian">
        <personTrip from="-196624981#0" to="279808663#1" modes="public"/>
    </person>
    <person id="ped81" depart="822.29" type="ped_pedestrian">
        <personTrip from="-353892425" to="505734193" modes="public"/>
    </person>
    <person id="ped82" depart="832.44" type="ped_pedestrian">
        <personTrip from="44329175#1" to="-196624981#0" modes="public"/>
    </person>
    <person id="ped83" depart="842.59" type="ped_pedestrian">
        <personTrip from="-35403762" to="31306481#4" modes="public"/>
    </person>
    <person id="ped84" depart="852.74" type="ped_pedestrian">
        <personTrip from="-32936142" to="-25798456#6" modes="public"/>
    </person>
    <person id="ped85" depart="862.90" type="ped_pedestrian">
        <personTrip from="587687970#2" to="26312463" modes="public"/>
    </person>
    <person id="ped86" depart="873.05" type="ped_pedestrian">
        <personTrip from="217390627#0" to="37452301#0" modes="public"/>
    </person>
    <person id="ped87" depart="883.20" type="ped_pedestrian">
        <personTrip from="37849792#4" to="-283006421#2" modes="public"/>
    </person>
    <person id="ped88" depart="893.35" type="ped_pedestrian">
        <personTrip from="-25016103#0" to="154754323#2" modes="public"/>
    </person>
    <person id="ped89" depart="903.50" type="ped_pedestrian">
        <personTrip from="15228215#1" to="217386902#2" modes="public"/>
    </person>
    <person id="ped90" depart="913.65" type="ped_pedestrian">
        <personTrip from="353619698#6" to="31307037#1" modes="public"/>
    </person>
    <person id="ped91" depart="923.81" type="ped_pedestrian">
        <personTrip from="724688434#0" to="-25016103#3" modes="public"/>
    </person>
    <person id="ped92" depart="933.96" type="ped_pedestrian">
        <personTrip from="150937133" to="-723757292" modes="public"/>
    </person>
    <person id="ped93" depart="944.11" type="ped_pedestrian">
        <personTrip from="44329176#4" to="-355358376" modes="public"/>
    </person>
    <person id="ped94" depart="954.26" type="ped_pedestrian">
        <personTrip from="-283006421#1" to="191237728#3" modes="public"/>
    </person>
    <person id="ped95" depart="964.41" type="ped_pedestrian">
        <personTrip from="151237831#9" to="-43169788#0" modes="public"/>
    </person>
    <person id="ped96" depart="974.56" type="ped_pedestrian">
        <personTrip from="-358701394" to="587291618#3" modes="public"/>
    </person>
    <person id="ped97" depart="984.72" type="ped_pedestrian">
        <personTrip from="174786229#4" to="44329176#3" modes="public"/>
    </person>
    <person id="ped98" depart="994.87" type="ped_pedestrian">
        <personTrip from="25799153#20" to="-151237817#3" modes="public"/>
    </person>
    <person id="ped99" depart="1005.02" type="ped_pedestrian">
        <personTrip from="9702843#0" to="43167437#4" modes="public"/>
    </person>
    <person id="ped100" depart="1015.17" type="ped_pedestrian">
        <personTrip from="723757291#12" to="587291619#5" modes="public"/>
    </person>
    <person id="ped101" depart="1025.32" type="ped_pedestrian">
        <personTrip from="441521944#2" to="-26489568#2" modes="public"/>
    </person>
    <person id="ped102" depart="1035.48" type="ped_pedestrian">
        <personTrip from="245124125" to="-32936061#1" modes="public"/>
    </person>
    <person id="ped103" depart="1045.63" type="ped_pedestrian">
        <personTrip from="150937130#3" to="-151237831#7" modes="public"/>
    </person>
    <person id="ped104" depart="1055.78" type="ped_pedestrian">
        <personTrip from="148614183#10" to="75252111#0" modes="public"/>
    </person>
    <person id="ped105" depart="1065.93" type="ped_pedestrian">
        <personTrip from="-38095508#0" to="37452300" modes="public"/>
    </person>
    <person id="ped106" depart="1076.08" type="ped_pedestrian">
        <personTrip from="196624981#2" to="151237847" modes="public"/>
    </person>
    <person id="ped107" depart="1086.23" type="ped_pedestrian">
        <personTrip from="682460124#1" to="9623950" modes="public"/>
    </person>
    <person id="ped108" depart="1096.39" type="ped_pedestrian">
        <personTrip from="25799239#4" to="353619692#1" modes="public"/>
    </person>
    <person id="ped109" depart="1106.54" type="ped_pedestrian">
        <personTrip from="-25815244#2" to="-46828421#2" modes="public"/>
    </person>
    <person id="ped110" depart="1116.69" type="ped_pedestrian">
        <personTrip from="723757291#11" to="26396367#6" modes="public"/>
    </person>
    <person id="ped111" depart="1126.84" type="ped_pedestrian">
        <personTrip from="25798716#1" to="35403555#0" modes="public"/>
    </person>
    <person id="ped112" depart="1136.99" type="ped_pedestrian">
        <personTrip from="-151237831#3" to="26489523#1" modes="public"/>
    </person>
    <person id="ped113" depart="1147.14" type="ped_pedestrian">
        <personTrip from="25016103#4" to="441521958" modes="public"/>
    </person>
    <person id="ped114" depart="1157.30" type="ped_pedestrian">
        <personTrip from="-26396111#3" to="685460477#1" modes="public"/>
    </person>
    <person id="ped115" depart="1167.45" type="ped_pedestrian">
        <personTrip from="-23045995#1" to="-283006412#1" modes="public"/>
    </person>
    <person id="ped116" depart="1177.60" type="ped_pedestrian">
        <personTrip from="26489584#9" to="31307043#1" modes="public"/>
    </person>
    <person id="ped117" depart="1187.75" type="ped_pedestrian">
        <personTrip from="-35403555#2" to="-25307868#0" modes="public"/>
    </person>
    <person id="ped118" depart="1197.90" type="ped_pedestrian">
        <personTrip from="462852149" to="-355345464#1" modes="public"/>
    </person>
    <person id="ped119" depart="1208.05" type="ped_pedestrian">
        <personTrip from="26489584#7" to="266454540#1" modes="public"/>
    </person>
    <person id="ped120" depart="1218.21" type="ped_pedestrian">
        <personTrip from="151237831#16" to="26489523#0" modes="public"/>
    </person>
    <person id="ped121" depart="1228.36" type="ped_pedestrian">
        <personTrip from="25278250#2" to="587687970#0" modes="public"/>
    </person>
    <person id="ped122" depart="1238.51" type="ped_pedestrian">
        <personTrip from="-31340120#1" to="353619689" modes="public"/>
    </person>
    <person id="ped123" depart="1248.66" type="ped_pedestrian">
        <personTrip from="-35403828" to="150937116#0" modes="public"/>
    </person>
    <person id="ped124" depart="1258.81" type="ped_pedestrian">
        <personTrip from="31307015#0" to="-46854408" modes="public"/>
    </person>
    <person id="ped125" depart="1268.96" type="ped_pedestrian">
        <personTrip from="-587687963" to="35403691#1" modes="public"/>
    </person>
    <person id="ped126" depart="1279.12" type="ped_pedestrian">
        <personTrip from="-196624982#1" to="217386887#3" modes="public"/>
    </person>
    <person id="ped127" depart="1289.27" type="ped_pedestrian">
        <personTrip from="9628124#0" to="9624204#1" modes="public"/>
    </person>
    <person id="ped128" depart="1299.42" type="ped_pedestrian">
        <personTrip from="-217386887#1" to="-32936061#0" modes="public"/>
    </person>
    <person id="ped129" depart="1309.57" type="ped_pedestrian">
        <personTrip from="-38095508#0" to="587687966" modes="public"/>
    </person>
    <person id="ped130" depart="1319.72" type="ped_pedestrian">
        <personTrip from="462573516" to="457284540" modes="public"/>
    </person>
    <person id="ped131" depart="1329.87" type="ped_pedestrian">
        <personTrip from="140648431#1" to="-26396111#4" modes="public"/>
    </person>
    <person id="ped132" depart="1340.03" type="ped_pedestrian">
        <personTrip from="43167434#1" to="336735697#5" modes="public"/>
    </person>
    <person id="ped133" depart="1350.18" type="ped_pedestrian">
        <personTrip from="26489856" to="77519637#0" modes="public"/>
    </person>
    <person id="ped134" depart="1360.33" type="ped_pedestrian">
        <personTrip from="304398009#2" to="-141520970#0" modes="public"/>
    </person>
    <person id="ped135" depart="1370.48" type="ped_pedestrian">
        <personTrip from="384630168#0" to="-46854116#3" modes="public"/>
    </person>
    <person id="ped136" depart="1380.63" type="ped_pedestrian">
        <personTrip from="31091054#4" to="587687982" modes="public"/>
    </person>
    <person id="ped137" depart="1390.79" type="ped_pedestrian">
        <personTrip from="-25798924#2" to="-25194206#4" modes="public"/>
    </person>
    <person id="ped138" depart="1400.94" type="ped_pedestrian">
        <personTrip from="-25192963#4" to="25799173#1" modes="public"/>
    </person>
    <person id="ped139" depart="1411.09" type="ped_pedestrian">
        <personTrip from="-41524139#1" to="26489713#2" modes="public"/>
    </person>
    <person id="ped140" depart="1421.24" type="ped_pedestrian">
        <personTrip from="353619691#1" to="-31306520#6" modes="public"/>
    </person>
    <person id="ped141" depart="1431.39" type="ped_pedestrian">
        <personTrip from="283006412#0" to="-38095492#2" modes="public"/>
    </person>
    <person id="ped142" depart="1441.54" type="ped_pedestrian">
        <personTrip from="24751914#5" to="505734193" modes="public"/>
    </person>
    <person id="ped143" depart="1451.70" type="ped_pedestrian">
        <personTrip from="44025127#0" to="-25000113#10" modes="public"/>
    </person>
    <person id="ped144" depart="1461.85" type="ped_pedestrian">
        <personTrip from="15228215#1" to="-43167437#2" modes="public"/>
    </person>
    <person id="ped145" depart="1472.00" type="ped_pedestrian">
        <personTrip from="-128020893#1" to="355355240" modes="public"/>
    </person>
    <person id="ped146" depart="1482.15" type="ped_pedestrian">
        <personTrip from="283006413#0" to="-37849738#3" modes="public"/>
    </person>
    <person id="ped147" depart="1492.30" type="ped_pedestrian">
        <personTrip from="353906000#0" to="25799153#6" modes="public"/>
    </person>
    <person id="ped148" depart="1502.45" type="ped_pedestrian">
        <personTrip from="154754299#3" to="-142540750" modes="public"/>
    </person>
    <person id="ped149" depart="1512.61" type="ped_pedestrian">
        <personTrip from="-217386897#0" to="462602744" modes="public"/>
    </person>
    <person id="ped150" depart="1522.76" type="ped_pedestrian">
        <personTrip from="505734191#2" to="25799022#1" modes="public"/>
    </person>
    <person id="ped151" depart="1532.91" type="ped_pedestrian">
        <personTrip from="43167437#0" to="26489522#2" modes="public"/>
    </person>
    <person id="ped152" depart="1543.06" type="ped_pedestrian">
        <personTrip from="-25814919#0" to="-25629001#1" modes="public"/>
    </person>
    <person id="ped153" depart="1553.21" type="ped_pedestrian">
        <personTrip from="-513239606" to="48563052#1" modes="public"/>
    </person>
    <person id="ped154" depart="1563.36" type="ped_pedestrian">
        <personTrip from="37525074" to="44329176#1" modes="public"/>
    </person>
    <person id="ped155" depart="1573.52" type="ped_pedestrian">
        <personTrip from="48563052#1" to="-329190066#1" modes="public"/>
    </person>
    <person id="ped156" depart="1583.67" type="ped_pedestrian">
        <personTrip from="-358701394" to="-25093637#3" modes="public"/>
    </person>
    <person id="ped157" depart="1593.82" type="ped_pedestrian">
        <personTrip from="37282765#1" to="462826522" modes="public"/>
    </person>
    <person id="ped158" depart="1603.97" type="ped_pedestrian">
        <personTrip from="150937176" to="266454540#4" modes="public"/>
    </person>
    <person id="ped159" depart="1614.12" type="ped_pedestrian">
        <personTrip from="-25815244#2" to="587687958#0" modes="public"/>
    </person>
    <person id="ped160" depart="1624.27" type="ped_pedestrian">
        <personTrip from="44329178#3" to="72414121" modes="public"/>
    </person>
    <person id="ped161" depart="1634.43" type="ped_pedestrian">
        <personTrip from="38095508#3" to="462590368" modes="public"/>
    </person>
    <person id="ped162" depart="1644.58" type="ped_pedestrian">
        <personTrip from="-150937047#3" to="353701676#1" modes="public"/>
    </person>
    <person id="ped163" depart="1654.73" type="ped_pedestrian">
        <personTrip from="-690827780" to="587687959#1" modes="public"/>
    </person>
    <person id="ped164" depart="1664.88" type="ped_pedestrian">
        <personTrip from="37849630" to="44329178#2" modes="public"/>
    </person>
    <person id="ped165" depart="1675.03" type="ped_pedestrian">
        <personTrip from="38095508#3" to="-38095779#1" modes="public"/>
    </person>
    <person id="ped166" depart="1685.19" type="ped_pedestrian">
        <personTrip from="37452306#1" to="-25192963#7" modes="public"/>
    </person>
    <person id="ped167" depart="1695.34" type="ped_pedestrian">
        <personTrip from="456662380" to="441521968#0" modes="public"/>
    </person>
    <person id="ped168" depart="1705.49" type="ped_pedestrian">
        <personTrip from="-342544712#0" to="384630167" modes="public"/>
    </person>
    <person id="ped169" depart="1715.64" type="ped_pedestrian">
        <personTrip from="217386895#1" to="-505734193" modes="public"/>
    </person>
    <person id="ped170" depart="1725.79" type="ped_pedestrian">
        <personTrip from="37524030#0" to="-353701668#1" modes="public"/>
    </person>
    <person id="ped171" depart="1735.94" type="ped_pedestrian">
        <personTrip from="-148738459" to="-294991104#0" modes="public"/>
    </person>
    <person id="ped172" depart="1746.10" type="ped_pedestrian">
        <personTrip from="-603978945" to="44329178#3" modes="public"/>
    </person>
    <person id="ped173" depart="1756.25" type="ped_pedestrian">
        <personTrip from="723754577" to="-43169788#1" modes="public"/>
    </person>
    <person id="ped174" depart="1766.40" type="ped_pedestrian">
        <personTrip from="286985098#0" to="150937126#0" modes="public"/>
    </person>
    <person id="ped175" depart="1776.55" type="ped_pedestrian">
        <personTrip from="72442767#11" to="25798306#1" modes="public"/>
    </person>
    <person id="ped176" depart="1786.70" type="ped_pedestrian">
        <personTrip from="587687982" to="-25194206#4" modes="public"/>
    </person>
    <person id="ped177" depart="1796.85" type="ped_pedestrian">
        <personTrip from="723757291#6" to="-266454540#3" modes="public"/>
    </person>
    <person id="ped178" depart="1807.01" type="ped_pedestrian">
        <personTrip from="706438772" to="-38095508#1" modes="public"/>
    </person>
    <person id="ped179" depart="1817.16" type="ped_pedestrian">
        <personTrip from="-25192963#8" to="172696048#0" modes="public"/>
    </person>
    <person id="ped180" depart="1827.31" type="ped_pedestrian">
        <personTrip from="353619698#5" to="-587260134#0" modes="public"/>
    </person>
    <person id="ped181" depart="1837.46" type="ped_pedestrian">
        <personTrip from="26489720#3" to="25192965#1" modes="public"/>
    </person>
    <person id="ped182" depart="1847.61" type="ped_pedestrian">
        <personTrip from="148614183#5" to="26396312#0" modes="public"/>
    </person>
    <person id="ped183" depart="1857.76" type="ped_pedestrian">
        <personTrip from="-37282765#6" to="35096784#1" modes="public"/>
    </person>
    <person id="ped184" depart="1867.92" type="ped_pedestrian">
        <personTrip from="-11897419#2" to="587291619#3" modes="public"/>
    </person>
    <person id="ped185" depart="1878.07" type="ped_pedestrian">
        <personTrip from="25798345#2" to="353619694#0" modes="public"/>
    </person>
    <person id="ped186" depart="1888.22" type="ped_pedestrian">
        <personTrip from="353906000#2" to="31306481#8" modes="public"/>
    </person>
    <person id="ped187" depart="1898.37" type="ped_pedestrian">
        <personTrip from="128020893#1" to="-191237728#3" modes="public"/>
    </person>
    <person id="ped188" depart="1908.52" type="ped_pedestrian">
        <personTrip from="31091055" to="-685460476#1" modes="public"/>
    </person>
    <person id="ped189" depart="1918.67" type="ped_pedestrian">
        <personTrip from="-587260134#1" to="441521936#1" modes="public"/>
    </person>
    <person id="ped190" depart="1928.83" type="ped_pedestrian">
        <personTrip from="353619694#1" to="-479315064" modes="public"/>
    </person>
    <person id="ped191" depart="1938.98" type="ped_pedestrian">
        <personTrip from="-520100577" to="151237803#3" modes="public"/>
    </person>
    <person id="ped192" depart="1949.13" type="ped_pedestrian">
        <personTrip from="150937132#0" to="-462852147#1" modes="public"/>
    </person>
    <person id="ped193" depart="1959.28" type="ped_pedestrian">
        <personTrip from="-25629001#0" to="151237831#4" modes="public"/>
    </person>
    <person id="ped194" depart="1969.43" type="ped_pedestrian">
        <personTrip from="587695669" to="322630208#0" modes="public"/>
    </person>
    <person id="ped195" depart="1979.58" type="ped_pedestrian">
        <personTrip from="505734190" to="264945981" modes="public"/>
    </person>
    <person id="ped196" depart="1989.74" type="ped_pedestrian">
        <personTrip from="-479315065#0" to="25799153#15" modes="public"/>
    </person>