<?xml version="1.0" encoding="UTF-8"?>

<!-- generated on 09/16/19 14:50:25 by Eclipse SUMO duarouter Version 1.3.1
<configuration xmlns:xsi="http://www.w3.org/2001/XMLSchema-instance" xsi:noNamespaceSchemaLocation="http://sumo.dlr.de/xsd/duarouterConfiguration.xsd">

    <input>
        <net-file value="C:\Users\camil\Sumo\2019-09-16-14-49-50\osm.net.xml"/>
        <route-files value="C:\Users\camil\Sumo\2019-09-16-14-49-50\osm.bus.trips.xml"/>
    </input>

    <output>
        <output-file value="C:\Users\camil\Sumo\2019-09-16-14-49-50\osm.bus.trips.xml.tmp"/>
        <write-trips value="true"/>
    </output>

    <time>
        <begin value="0"/>
        <end value="3600.0"/>
    </time>

    <report>
        <no-warnings value="true"/>
        <ignore-errors value="true"/>
        <no-step-log value="true"/>
    </report>

</configuration>
-->

<routes xmlns:xsi="http://www.w3.org/2001/XMLSchema-instance" xsi:noNamespaceSchemaLocation="http://sumo.dlr.de/xsd/routes_file.xsd">
    <vType id="bus_bus" vClass="bus"/>
    <trip id="bus3" type="bus_bus" depart="11.77" departLane="best" from="426572490#1" to="-217390581#0"/>
    <trip id="bus5" type="bus_bus" depart="19.62" departLane="best" from="-25815035#1" to="148738459"/>
    <trip id="bus7" type="bus_bus" depart="27.46" departLane="best" from="25192964#2" to="151237817#4"/>
    <trip id="bus12" type="bus_bus" depart="47.08" departLane="best" from="638460947#1" to="-35403721#1"/>
    <trip id="bus13" type="bus_bus" depart="51.00" departLane="best" from="-217390621" to="-24751914#0"/>
    <trip id="bus14" type="bus_bus" depart="54.92" departLane="best" from="35403555#1" to="25000113#16"/>
    <trip id="bus16" type="bus_bus" depart="62.77" departLane="best" from="150937113#2" to="72442767#6"/>
    <trip id="bus17" type="bus_bus" depart="66.69" departLane="best" from="-410646532#1" to="151237831#14"/>
    <trip id="bus18" type="bus_bus" depart="70.62" departLane="best" from="342544712#0" to="25016104"/>
    <trip id="bus19" type="bus_bus" depart="74.54" departLane="best" from="35414074#0" to="217386888#2"/>
    <trip id="bus20" type="bus_bus" depart="78.46" departLane="best" from="25799153#6" to="-150937180#1"/>
    <trip id="bus21" type="bus_bus" depart="82.39" departLane="best" from="-26624363#0" to="-328400400#0"/>
    <trip id="bus22" type="bus_bus" depart="86.31" departLane="best" departSpeed="max" from="-171091371#1" to="-26489644#0"/>
    <trip id="bus23" type="bus_bus" depart="90.23" departLane="best" from="-24751914#1" to="-31306481#0"/>
    <trip id="bus25" type="bus_bus" depart="98.08" departLane="best" from="-31091054#4" to="587687970#0"/>
    <trip id="bus26" type="bus_bus" depart="102.00" departLane="best" departSpeed="max" from="25192964#0" to="25000125#1"/>
    <trip id="bus27" type="bus_bus" depart="105.92" departLane="best" from="-25629001#2" to="272111635#0"/>
    <trip id="bus28" type="bus_bus" depart="109.85" departLane="best" from="-25307868#0" to="-43167423"/>
    <trip id="bus29" type="bus_bus" depart="113.77" departLane="best" from="151237809#2" to="25799153#20"/>
    <trip id="bus30" type="bus_bus" depart="117.69" departLane="best" from="35403473#1" to="31340120#1"/>
    <trip id="bus31" type="bus_bus" depart="121.62" departLane="best" from="-35321083#2" to="-31091036#13"/>
    <trip id="bus32" type="bus_bus" depart="125.54" departLane="best" departSpeed="max" from="-25799299" to="587695667#1"/>
    <trip id="bus33" type="bus_bus" depart="129.46" departLane="best" from="25192970" to="-433933817#1"/>
    <trip id="bus34" type="bus_bus" depart="133.39" departLane="best" departSpeed="max" from="462852145#0" to="-72442767#0"/>
    <trip id="bus35" type="bus_bus" depart="137.31" departLane="best" from="-31091054#1" to="-272111662"/>
    <trip id="bus36" type="bus_bus" depart="141.23" departLane="best" from="151237827#1" to="-297984310"/>
    <trip id="bus37" type="bus_bus" depart="145.15" departLane="best" from="193875628#0" to="432116461#1"/>
    <trip id="bus39" type="bus_bus" depart="153.00" departLane="best" from="9628124#0" to="150937047#5"/>
    <trip id="bus40" type="bus_bus" depart="156.92" departLane="best" from="31306481#2" to="-587687964#0"/>
    <trip id="bus41" type="bus_bus" depart="160.85" departLane="best" from="-151237817#2" to="-43167423"/>
    <trip id="bus42" type="bus_bus" depart="164.77" departLane="best" from="9624204#5" to="150937133"/>
    <trip id="bus43" type="bus_bus" depart="168.69" departLane="best" from="723757293" to="37849738#3"/>
    <trip id="bus44" type="bus_bus" depart="172.62" departLane="best" from="-148614183#0" to="26624363#1"/>
    <trip id="bus45" type="bus_bus" depart="176.54" departLane="best" departSpeed="max" from="25798273#0" to="151237805#1"/>
    <trip id="bus46" type="bus_bus" depart="180.46" departLane="best" from="-31091054#4" to="25194206#1"/>
    <trip id="bus47" type="bus_bus" depart="184.39" departLane="best" from="-25000112#7" to="-589852136#0"/>
    <trip id="bus48" type="bus_bus" depart="188.31" departLane="best" from="-589856938#0" to="638460947#0"/>
    <trip id="bus50" type="bus_bus" depart="196.16" departLane="best" from="143681196#0" to="-25798456#0"/>
    <trip id="bus51" type="bus_bus" depart="200.08" departLane="best" from="456662392#1" to="384630981"/>
    <trip id="bus52" type="bus_bus" depart="204.00" departLane="best" from="25000104#6" to="-25194206#7"/>
    <trip id="bus53" type="bus_bus" depart="207.92" departLane="best" from="283006413#0" to="151237805#6"/>
    <trip id="bus54" type="bus_bus" depart="211.85" departLane="best" from="31091036#10" to="150937180#0"/>
    <trip id="bus55" type="bus_bus" depart="215.77" departLane="best" from="-105006225" to="-35321086#0"/>
    <trip id="bus56" type="bus_bus" depart="219.69" departLane="best" from="-148614183#23" to="587260132"/>
    <trip id="bus57" type="bus_bus" depart="223.62" departLane="best" from="37849716#1" to="35414072#3"/>
    <trip id="bus58" type="bus_bus" depart="227.54" departLane="best" from="-336735697#4" to="-151237817#1"/>
    <trip id="bus59" type="bus_bus" depart="231.46" departLane="best" from="37849630" to="589852136#1"/>
    <trip id="bus60" type="bus_bus" depart="235.39" departLane="best" from="-193875622#1" to="143681196#2"/>
    <trip id="bus61" type="bus_bus" depart="239.31" departLane="best" from="-151237827#7" to="31091036#9"/>
    <trip id="bus63" type="bus_bus" depart="247.16" departLane="best" from="-31091054#1" to="409152593"/>
    <trip id="bus64" type="bus_bus" depart="251.08" departLane="best" departSpeed="max" from="-48563052#1" to="-25814919#0"/>
    <trip id="bus65" type="bus_bus" depart="255.00" departLane="best" from="150937119#0" to="272111662"/>
    <trip id="bus66" type="bus_bus" depart="258.92" departLane="best" from="-25799173#2" to="-336735697#5"/>
    <trip id="bus67" type="bus_bus" depart="262.85" departLane="best" from="9624204#3" to="25194873#3"/>
    <trip id="bus68" type="bus_bus" depart="266.77" departLane="best" from="-587687964#0" to="150937110#2"/>
    <trip id="bus70" type="bus_bus" depart="274.62" departLane="best" from="-35414072#3" to="24751914#1"/>
    <trip id="bus72" type="bus_bus" depart="282.46" departLane="best" from="-151237831#11" to="25192963#6"/>
    <trip id="bus73" type="bus_bus" depart="286.39" departLane="best" from="-26624363#2" to="462602744"/>
    <trip id="bus74" type="bus_bus" depart="290.31" departLane="best" from="35414072#0" to="-151237831#6"/>
    <trip id="bus75" type="bus_bus" depart="294.23" departLane="best" from="-279125376#1" to="25798456#2"/>
    <trip id="bus77" type="bus_bus" depart="302.08" departLane="best" from="587687964#0" to="193875622#4"/>
    <trip id="bus80" type="bus_bus" depart="313.85" departLane="best" departSpeed="max" from="-233698813" to="-587687976#2"/>
    <trip id="bus84" type="bus_bus" depart="329.54" departLane="best" from="-433933817#0" to="-35414070"/>
    <trip id="bus85" type="bus_bus" depart="333.46" departLane="best" from="35414074#0" to="-279808663#0"/>
    <trip id="bus86" type="bus_bus" depart="337.39" departLane="best" from="-25799153#15" to="-685460477#1"/>
    <trip id="bus88" type="bus_bus" depart="345.23" departLane="best" from="9702843#0" to="358701736"/>
    <trip id="bus89" type="bus_bus" depart="349.16" departLane="best" from="723757291#7" to="52710327#3"/>
    <trip id="bus90" type="bus_bus" depart="353.08" departLane="best" from="35403627" to="-25629001#0"/>
    <trip id="bus92" type="bus_bus" depart="360.93" departLane="best" from="-432116461#1" to="-151237817#3"/>
    <trip id="bus93" type="bus_bus" depart="364.85" departLane="best" from="-413009384" to="91603547#3"/>
    <trip id="bus95" type="bus_bus" depart="372.69" departLane="best" from="638460947#1" to="9624204#4"/>
    <trip id="bus96" type="bus_bus" depart="376.62" departLane="best" from="151237809#0" to="26489644#3"/>
    <trip id="bus98" type="bus_bus" depart="384.46" departLane="best" from="723757291#7" to="217390581#0"/>
    <trip id="bus99" type="bus_bus" depart="388.39" departLane="best" from="150937124#2" to="292487453#1"/>
    <trip id="bus100" type="bus_bus" depart="392.31" departLane="best" from="-151237805#1" to="233698813"/>
    <trip id="bus102" type="bus_bus" depart="400.16" departLane="best" departSpeed="max" from="-25194206#8" to="723757291#0"/>
    <trip id="bus103" type="bus_bus" depart="404.08" departLane="best" departSpeed="max" from="-171091371#1" to="-25798924#3"/>
    <trip id="bus104" type="bus_bus" depart="408.00" departLane="best" from="420006965" to="-272111662"/>
    <trip id="bus105" type="bus_bus" depart="411.93" departLane="best" from="23045996#0" to="25016105"/>
    <trip id="bus106" type="bus_bus" depart="415.85" departLane="best" departSpeed="max" from="-46854408" to="23045996#4"/>
    <trip id="bus108" type="bus_bus" depart="423.69" departLane="best" from="-25799239#5" to="26489644#1"/>
    <trip id="bus109" type="bus_bus" depart="427.62" departLane="best" from="-279125376#2" to="-433933817#1"/>
    <trip id="bus111" type="bus_bus" depart="435.46" departLane="best" from="-35321083#4" to="31091036#1"/>
    <trip id="bus112" type="bus_bus" depart="439.39" departLane="best" from="-151237831#14" to="-723757589#1"/>
    <trip id="bus113" type="bus_bus" depart="443.31" departLane="best" from="9628124#2" to="9624204#5"/>
    <trip id="bus115" type="bus_bus" depart="451.16" departLane="best" from="-31091054#1" to="587687964#1"/>
    <trip id="bus116" type="bus_bus" depart="455.08" departLane="best" from="37849738#2" to="420006973"/>
    <trip id="bus118" type="bus_bus" depart="462.93" departLane="best" departSpeed="max" from="35321083#0" to="25799299"/>
    <trip id="bus119" type="bus_bus" depart="466.85" departLane="best" from="25000112#3" to="9622672"/>
    <trip id="bus121" type="bus_bus" depart="474.70" departLane="best" from="25194874#1" to="587687975#0"/>
    <trip id="bus123" type="bus_bus" depart="482.54" departLane="best" from="-25000112#0" to="151237831#16"/>
    <trip id="bus124" type="bus_bus" depart="486.46" departLane="best" from="-31306481#7" to="25000113#2"/>
    <trip id="bus126" type="bus_bus" depart="494.31" departLane="best" departSpeed="max" from="-9622672" to="462602744"/>
    <trip id="bus127" type="bus_bus" depart="498.23" departLane="best" departSpeed="max" from="35403505" to="-230770533"/>
    <trip id="bus129" type="bus_bus" depart="506.08" departLane="best" departSpeed="max" from="-140648431#2" to="31306520#3"/>
    <trip id="bus131" type="bus_bus" depart="513.93" departLane="best" from="26280372" to="151237831#12"/>
    <trip id="bus132" type="bus_bus" depart="517.85" departLane="best" from="-151237831#4" to="43167434#0"/>
    <trip id="bus133" type="bus_bus" depart="521.77" departLane="best" from="43169787#1" to="151237827#0"/>
    <trip id="bus134" type="bus_bus" depart="525.70" departLane="best" departSpeed="max" from="35321083#0" to="23045996#2"/>
    <trip id="bus136" type="bus_bus" depart="533.54" departLane="best" from="-336735697#5" to="432116461#3"/>
    <trip id="bus138" type="bus_bus" depart="541.39" departLane="best" from="-283006421#2" to="-25000104#5"/>
    <trip id="bus139" type="bus_bus" depart="545.31" departLane="best" from="31091036#12" to="43167434#2"/>
    <trip id="bus141" type="bus_bus" depart="553.16" departLane="best" from="-25194206#6" to="587260133"/>
    <trip id="bus145" type="bus_bus" depart="568.85" departLane="best" from="-35403826" to="587260134#1"/>
    <trip id="bus146" type="bus_bus" depart="572.77" departLane="best" from="328399245" to="38095508#2"/>
    <trip id="bus148" type="bus_bus" depart="580.62" departLane="best" from="31091054#1" to="-25000112#6"/>
    <trip id="bus149" type="bus_bus" depart="584.54" departLane="best" from="37452306#2" to="37849716#1"/>
    <trip id="bus150" type="bus_bus" depart="588.47" departLane="best" from="-26280362" to="35403548#1"/>
    <trip id="bus151" type="bus_bus" depart="592.39" departLane="best" from="-685460476#3" to="-331318342#5"/>
    <trip id="bus153" type="bus_bus" depart="600.23" departLane="best" from="-148614183#8" to="-25799153#19"/>
    <trip id="bus154" type="bus_bus" depart="604.16" departLane="best" departSpeed="max" from="-35403641" to="38095508#2"/>
    <trip id="bus155" type="bus_bus" depart="608.08" departLane="best" from="723757291#4" to="-31306481#2"/>
    <trip id="bus156" type="bus_bus" depart="612.00" departLane="best" from="75252111#1" to="151237805#0"/>
    <trip id="bus157" type="bus_bus" depart="615.93" departLane="best" from="587687968#1" to="-25000113#4"/>
    <trip id="bus158" type="bus_bus" depart="619.85" departLane="best" from="723757292" to="-25798456#0"/>
    <trip id="bus159" type="bus_bus" depart="623.77" departLane="best" from="690827778" to="-31091036#1"/>
    <trip id="bus160" type="bus_bus" depart="627.70" departLane="best" from="-25000112#2" to="-589852136#0"/>
    <trip id="bus162" type="bus_bus" depart="635.54" departLane="best" from="24751914#5" to="150937052"/>
    <trip id="bus163" type="bus_bus" depart="639.47" departLane="best" from="-426572490#3" to="217386888#0"/>
    <trip id="bus165" type="bus_bus" depart="647.31" departLane="best" from="150937117" to="26489644#3"/>
    <trip id="bus166" type="bus_bus" depart="651.23" departLane="best" from="26280393" to="25798456#6"/>
    <trip id="bus167" type="bus_bus" depart="655.16" departLane="best" from="-37849738#2" to="-151237831#4"/>
    <trip id="bus170" type="bus_bus" depart="666.93" departLane="best" departSpeed="max" from="25814919#0" to="-32936158"/>
    <trip id="bus172" type="bus_bus" depart="674.77" departLane="best" from="-25016103#8" to="-587687960#0"/>
    <trip id="bus173" type="bus_bus" depart="678.70" departLane="best" from="43167439#1" to="25016103#8"/>
    <trip id="bus174" type="bus_bus" depart="682.62" departLane="best" from="-331318342#5" to="151237827#6"/>
    <trip id="bus175" type="bus_bus" depart="686.54" departLane="best" from="-105006225" to="-328253843#0"/>
    <trip id="bus176" type="bus_bus" depart="690.47" departLane="best" from="-586676240" to="217390581#1"/>
    <trip id="bus177" type="bus_bus" depart="694.39" departLane="best" from="25192969#5" to="-724688434#0"/>
    <trip id="bus179" type="bus_bus" depart="702.23" departLane="best" from="-72442767#11" to="456662391"/>
    <trip id="bus180" type="bus_bus" depart="706.16" departLane="best" from="31306520#0" to="-25798244#0"/>
    <trip id="bus181" type="bus_bus" depart="710.08" departLane="best" departSpeed="max" from="-174786229#4" to="150937106#0"/>
    <trip id="bus183" type="bus_bus" depart="717.93" departLane="best" from="331318342#5" to="31091036#0"/>
    <trip id="bus186" type="bus_bus" depart="729.70" departLane="best" from="-283006412#5" to="-9624002"/>
    <trip id="bus187" type="bus_bus" depart="733.62" departLane="best" from="35403721#1" to="-154754266"/>
    <trip id="bus189" type="bus_bus" depart="741.47" departLane="best" departSpeed="max" from="-25799153#21" to="25799239#5"/>
    <trip id="bus190" type="bus_bus" depart="745.39" departLane="best" from="25194206#0" to="-148614175#0"/>
    <trip id="bus191" type="bus_bus" depart="749.31" departLane="best" from="-25000104#7" to="-587687968#1"/>
    <trip id="bus192" type="bus_bus" depart="753.24" departLane="best" departSpeed="max" from="-25798345#4" to="685460476#3"/>
    <trip id="bus193" type="bus_bus" depart="757.16" departLane="best" from="148614183#5" to="-151237804#3"/>
    <trip id="bus195" type="bus_bus" depart="765.00" departLane="best" from="-589941539#0" to="336735697#4"/>
    <trip id="bus196" type="bus_bus" depart="768.93" departLane="best" from="25307868#0" to="9622672"/>
    <trip id="bus197" type="bus_bus" depart="772.85" departLane="best" from="426572490#0" to="25016103#3"/>
    <trip id="bus198" type="bus_bus" depart="776.77" departLane="best" from="35096784#0" to="151237827#4"/>
    <trip id="bus199" type="bus_bus" depart="780.70" departLane="best" departSpeed="max" from="43167423" to="283006421#2"/>
    <trip id="bus200" type="bus_bus" depart="784.62" departLane="best" from="-72442767#4" to="-283006421#2"/>
    <trip id="bus201" type="bus_bus" depart="788.54" departLane="best" from="-283006414#2" to="25192969#2"/>
    <trip id="bus202" type="bus_bus" depart="792.47" departLane="best" from="283006414#3" to="150937113#3"/>
    <trip id="bus203" type="bus_bus" depart="796.39" departLane="best" from="25016103#10" to="-31091054#1"/>
    <trip id="bus204" type="bus_bus" depart="800.31" departLane="best" from="-151237831#9" to="-31306520#6"/>
    <trip id="bus205" type="bus_bus" depart="804.24" departLane="best" from="-31306481#5" to="-35321083#0"/>
    <trip id="bus206" type="bus_bus" depart="808.16" departLane="best" from="150937119#2" to="-25192963#8"/>
    <trip id="bus207" type="bus_bus" depart="812.08" departLane="best" from="-266454540#3" to="25799239#1"/>
    <trip id="bus208" type="bus_bus" depart="816.00" departLane="best" from="25799173#0" to="-151237831#0"/>
    <trip id="bus209" type="bus_bus" depart="819.93" departLane="best" departSpeed="max" from="-46854398" to="-25799297#0"/>
    <trip id="bus210" type="bus_bus" depart="823.85" departLane="best" departSpeed="max" from="-46854408" to="462602744"/>
    <trip id="bus211" type="bus_bus" depart="827.77" departLane="best" from="193875622#4" to="25799239#4"/>
    <trip id="bus212" type="bus_bus" depart="831.70" departLane="best" departSpeed="max" from="35414070" to="31306481#2"/>
    <trip id="bus213" type="bus_bus" depart="835.62" departLane="best" departSpeed="max" from="-41524139#1" to="-148614175#1"/>
    <trip id="bus215" type="bus_bus" depart="843.47" departLane="best" departSpeed="max" from="35403737#0" to="638460946"/>
    <trip id="bus216" type="bus_bus" depart="847.39" departLane="best" departSpeed="max" from="-46854408" to="292487453#1"/>
    <trip id="bus217" type="bus_bus" depart="851.31" departLane="best" from="-587687959#1" to="-150937074#0"/>
    <trip id="bus218" type="bus_bus" depart="855.24" departLane="best" departSpeed="max" from="-456662391" to="-25374267"/>
    <trip id="bus220" type="bus_bus" depart="863.08" departLane="best" from="25000113#5" to="-150937047#6"/>
    <trip id="bus221" type="bus_bus" depart="867.01" departLane="best" from="-43169788#0" to="173640273#2"/>
    <trip id="bus224" type="bus_bus" depart="878.77" departLane="best" from="266454541#1" to="35414072#4"/>
    <trip id="bus225" type="bus_bus" depart="882.70" departLane="best" departSpeed="max" from="-292487453#1" to="-193875628#0"/>
    <trip id="bus226" type="bus_bus" depart="886.62" departLane="best" from="-148614183#21" to="151237805#6"/>
    <trip id="bus228" type="bus_bus" depart="894.47" departLane="best" from="25192965#0" to="329190066#0"/>
    <trip id="bus229" type="bus_bus" depart="898.39" departLane="best" from="-148614183#24" to="-25194206#6"/>
    <trip id="bus230" type="bus_bus" depart="902.31" departLane="best" from="-25016103#6" to="25798456#2"/>
    <trip id="bus232" type="bus_bus" depart="910.16" departLane="best" from="25799153#15" to="31306481#4"/>
    <trip id="bus233" type="bus_bus" depart="914.08" departLane="best" from="-25332283#2" to="25000113#7"/>
    <trip id="bus234" type="bus_bus" depart="918.01" departLane="best" from="331318342#8" to="723757291#5"/>
    <trip id="bus235" type="bus_bus" depart="921.93" departLane="best" from="-25000112#1" to="-150937047#3"/>
    <trip id="bus236" type="bus_bus" depart="925.85" departLane="best" departSpeed="max" from="-35096784#3" to="25798952#1"/>
    <trip id="bus237" type="bus_bus" depart="929.77" departLane="best" from="67194411" to="-456662392#1"/>
    <trip id="bus238" type="bus_bus" depart="933.70" departLane="best" departSpeed="max" from="25799297#0" to="-171257628#1"/>
    <trip id="bus239" type="bus_bus" depart="937.62" departLane="best" from="25798716#0" to="25192962#3"/>
    <trip id="bus240" type="bus_bus" depart="941.54" departLane="best" from="-24751914#3" to="31306520#5"/>
    <trip id="bus241" type="bus_bus" depart="945.47" departLane="best" from="35403721#2" to="25000113#0"/>
    <trip id="bus242" type="bus_bus" depart="949.39" departLane="best" from="-25000125#1" to="91603547#3"/>
    <trip id="bus244" type="bus_bus" depart="957.24" departLane="best" from="148614177#1" to="-35414070"/>
    <trip id="bus246" type="bus_bus" depart="965.08" departLane="best" from="25799173#2" to="-589856939"/>
    <trip id="bus248" type="bus_bus" depart="972.93" departLane="best" from="-31306481#3" to="35096784#3"/>
    <trip id="bus249" type="bus_bus" depart="976.85" departLane="best" from="150937113#5" to="140648431#2"/>
    <trip id="bus250" type="bus_bus" depart="980.78" departLane="best" from="-587687959#1" to="279125376#2"/>
    <trip id="bus252" type="bus_bus" depart="988.62" departLane="best" from="35096784#1" to="-217390581#0"/>
    <trip id="bus253" type="bus_bus" depart="992.54" departLane="best" from="37849738#4" to="-272111635#2"/>
    <trip id="bus254" type="bus_bus" depart="996.47" departLane="best" from="-723757291#12" to="25016103#0"/>
    <trip id="bus255" type="bus_bus" depart="1000.39" departLane="best" from="-413009384" to="-150937074#0"/>
    <trip id="bus256" type="bus_bus" depart="1004.31" departLane="best" departSpeed="max" from="35403737#0" to="-25798456#2"/>
    <trip id="bus257" type="bus_bus" depart="1008.24" departLane="best" departSpeed="max" from="-25799299" to="331318343#2"/>
    <trip id="bus258" type="bus_bus" depart="1012.16" departLane="best" departSpeed="max" from="-358701736" to="426572490#1"/>
    <trip id="bus259" type="bus_bus" depart="1016.08" departLane="best" from="25799153#18" to="-31091054#4"/>
    <trip id="bus260" type="bus_bus" depart="1020.01" departLane="best" from="-148614177#1" to="589856938#1"/>
    <trip id="bus261" type="bus_bus" depart="1023.93" departLane="best" from="-193875622#1" to="26624363#0"/>
    <trip id="bus262" type="bus_bus" depart="1027.85" departLane="best" departSpeed="max" from="-9622672" to="31091036#5"/>
    <trip id="bus263" type="bus_bus" depart="1031.78" departLane="best" from="25798716#0" to="25194206#8"/>
    <trip id="bus264" type="bus_bus" depart="1035.70" departLane="best" departSpeed="max" from="-9622704" to="331318342#2"/>
    <trip id="bus266" type="bus_bus" depart="1043.54" departLane="best" from="25798716#2" to="-331318342#8"/>
    <trip id="bus267" type="bus_bus" depart="1047.47" departLane="best" from="150937106#0" to="-587687968#1"/>
    <trip id="bus268" type="bus_bus" depart="1051.39" departLane="best" from="266454540#0" to="-35403505"/>
    <trip id="bus269" type="bus_bus" depart="1055.31" departLane="best" from="25799153#20" to="-31091036#4"/>
    <trip id="bus270" type="bus_bus" depart="1059.24" departLane="best" departSpeed="max" from="-292487453#1" to="-25016103#10"/>
    <trip id="bus271" type="bus_bus" depart="1063.16" departLane="best" from="-25799153#19" to="-25016103#0"/>
    <trip id="bus272" type="bus_bus" depart="1067.08" departLane="best" from="150937113#1" to="31091054#3"/>
    <trip id="bus274" type="bus_bus" depart="1074.93" departLane="best" from="-91603547#2" to="266454540#4"/>
    <trip id="bus275" type="bus_bus" depart="1078.85" departLane="best" from="72442767#7" to="150937119#2"/>
    <trip id="bus276" type="bus_bus" depart="1082.78" departLane="best" departSpeed="max" from="-31340120#1" to="-24751914#5"/>
    <trip id="bus278" type="bus_bus" depart="1090.62" departLane="best" departSpeed="max" from="-25798456#6" to="-148614183#17"/>
    <trip id="bus279" type="bus_bus" depart="1094.54" departLane="best" from="150937110#3" to="-31091054#1"/>
    <trip id="bus280" type="bus_bus" depart="1098.47" departLane="best" from="72442767#2" to="151237831#16"/>
    <trip id="bus283" type="bus_bus" depart="1110.24" departLane="best" from="37452306#3" to="217386887#0"/>
    <trip id="bus284" type="bus_bus" depart="1114.16" departLane="best" from="-723757292" to="-589868390"/>
    <trip id="bus285" type="bus_bus" depart="1118.08" departLane="best" from="-25798924#2" to="-151237805#1"/>
    <trip id="bus286" type="bus_bus" depart="1122.01" departLane="best" from="587687970#2" to="-9628124#2"/>
    <trip id="bus287" type="bus_bus" depart="1125.93" departLane="best" from="331318343#4" to="-462852145#1"/>
    <trip id="bus288" type="bus_bus" depart="1129.85" departLane="best" from="-151237831#2" to="25192963#3"/>
    <trip id="bus289" type="bus_bus" depart="1133.78" departLane="best" from="-151237803#3" to="-25194206#1"/>
    <trip id="bus290" type="bus_bus" depart="1137.70" departLane="best" from="151237827#3" to="-331318342#3"/>
    <trip id="bus291" type="bus_bus" depart="1141.62" departLane="best" from="283006414#1" to="25000113#4"/>
    <trip id="bus294" type="bus_bus" depart="1153.39" departLane="best" from="-587687970#0" to="37849738#2"/>
    <trip id="bus295" type="bus_bus" depart="1157.31" departLane="best" from="9623807" to="-331318342#6"/>
    <trip id="bus296" type="bus_bus" depart="1161.24" departLane="best" from="25000113#3" to="25000125#2"/>
    <trip id="bus300" type="bus_bus" depart="1176.93" departLane="best" from="-25798345#2" to="-171257628#0"/>
    <trip id="bus301" type="bus_bus" depart="1180.85" departLane="best" from="-140648431#0" to="-723757291#10"/>
    <trip id="bus302" type="bus_bus" depart="1184.78" departLane="best" from="23045995#1" to="-329190066#0"/>
    <trip id="bus304" type="bus_bus" depart="1192.62" departLane="best" from="25799153#20" to="-723757291#6"/>
    <trip id="bus305" type="bus_bus" depart="1196.55" departLane="best" departSpeed="max" from="25798456#0" to="520100576#1"/>
    <trip id="bus307" type="bus_bus" depart="1204.39" departLane="best" from="25194873#1" to="587687964#2"/>
    <trip id="bus308" type="bus_bus" depart="1208.31" departLane="best" departSpeed="max" from="34022542" to="-151237831#7"/>
    <trip id="bus309" type="bus_bus" depart="1212.24" departLane="best" from="266454540#6" to="193875622#0"/>
    <trip id="bus311" type="bus_bus" depart="1220.08" departLane="best" departSpeed="max" from="25798456#0" to="25799297#2"/>
    <trip id="bus312" type="bus_bus" depart="1224.01" departLane="best" from="587687975#1" to="148614183#24"/>
    <trip id="bus313" type="bus_bus" depart="1227.93" departLane="best" from="-9623807" to="-193875622#2"/>
    <trip id="bus314" type="bus_bus" depart="1231.85" departLane="best" from="-150937110#3" to="-587695667#0"/>
    <trip id="bus315" type="bus_bus" depart="1235.78" departLane="best" departSpeed="max" from="-35403548#1" to="-279808666#2"/>
    <trip id="bus316" type="bus_bus" depart="1239.70" departLane="best" from="35321083#4" to="217386887#2"/>
    <trip id="bus317" type="bus_bus" depart="1243.62" departLane="best" departSpeed="max" from="589868387" to="9702843#1"/>
    <trip id="bus318" type="bus_bus" depart="1247.55" departLane="best" from="25332283#3" to="-31091036#16"/>
    <trip id="bus319" type="bus_bus" depart="1251.47" departLane="best" from="-150937110#4" to="31091036#2"/>
    <trip id="bus320" type="bus_bus" depart="1255.39" departLane="best" from="-723757589#0" to="25194874#2"/>
    <trip id="bus321" type="bus_bus" depart="1259.32" departLane="best" departSpeed="max" from="462852145#0" to="-25798456#2"/>
    <trip id="bus322" type="bus_bus" depart="1263.24" departLane="best" from="193875628#2" to="25192965#0"/>
    <trip id="bus323" type="bus_bus" depart="1267.16" departLane="best" departSpeed="max" from="-9622704" to="-230770533"/>
    <trip id="bus325" type="bus_bus" depart="1275.01" departLane="best" from="25307934#0" to="37849716#0"/>
    <trip id="bus326" type="bus_bus" depart="1278.93" departLane="best" from="-329190066#1" to="589852136#1"/>
    <trip id="bus328" type="bus_bus" depart="1286.78" departLane="best" from="-589868383" to="-34022542"/>
    <trip id="bus329" type="bus_bus" depart="1290.70" departLane="best" departSpeed="max" from="-35403548#1" to="72442767#10"/>
    <trip id="bus330" type="bus_bus" depart="1294.62" departLane="best" departSpeed="max" from="-456662391" to="150937093#0"/>
    <trip id="bus331" type="bus_bus" depart="1298.55" departLane="best" from="150937130#3" to="-586055414"/>
    <trip id="bus333" type="bus_bus" depart="1306.39" departLane="best" from="279808666#2" to="25192962#0"/>
    <trip id="bus334" type="bus_bus" depart="1310.32" departLane="best" from="283006412#4" to="-25799239#7"/>
    <trip id="bus335" type="bus_bus" depart="1314.24" departLane="best" from="151237804#0" to="586676237"/>
    <trip id="bus336" type="bus_bus" depart="1318.16" departLane="best" from="-587687964#0" to="25799283#1"/>
    <trip id="bus337" type="bus_bus" depart="1322.08" departLane="best" from="-25000125#2" to="72442767#6"/>
    <trip id="bus338" type="bus_bus" depart="1326.01" departLane="best" from="25000104#6" to="-266454540#6"/>
    <trip id="bus339" type="bus_bus" depart="1329.93" departLane="best" departSpeed="max" from="-25194206#8" to="151237831#11"/>