<?xml version="1.0" encoding="UTF-8"?>
<!-- generated on 2019-09-23 12:38:19.791411 by $Id$
  options: -n osm.net.xml -e 3600 -p 600 <doubleminus>random-begin <doubleminus>seed 42 <doubleminus>ptstops osm_stops.add.xml <doubleminus>ptlines osm_ptlines.xml -o osm_pt.rou.xml <doubleminus>ignore-errors <doubleminus>vtype-prefix pt_ <doubleminus>stopinfos-file stopinfos.xml <doubleminus>routes-file vehroutes.xml <doubleminus>trips-file trips.trips.xml <doubleminus>verbose
-->
<routes xmlns:xsi="http://www.w3.org/2001/XMLSchema-instance" xsi:noNamespaceSchemaLocation="http://sumo.dlr.de/xsd/routes_file.xsd">
    <vType id="pt_bus" vClass="bus"/>
    <vType id="pt_tram" vClass="tram"/>
    <vType id="pt_train" vClass="rail"/>
    <vType id="pt_subway" vClass="rail_urban"/>
    <vType id="pt_light_rail" vClass="rail_urban"/>
    <vType id="pt_monorail" vClass="rail"/>
    <vType id="pt_trolleybus" vClass="bus"/>
    <vType id="pt_aerialway" vClass="bus"/>
    <vType id="pt_ferry" vClass="ship"/>
    <trip id="0_tram_88:0" type="pt_tram" depart="15" departLane="best" from="-298357088#0" to="171091369#0">
        <stop busStop="-3022831712" duration="30"/>
        <stop busStop="-3986514165" duration="30"/>
        <stop busStop="-253943361" duration="30"/>
        <stop busStop="253943345" duration="30"/>
        <stop busStop="253943340" duration="30"/>
    </trip>
    <trip id="1_tram_60:0" type="pt_tram" depart="17" departLane="best" from="385907618#0" to="173640266">
        <stop busStop="349055255" duration="30"/>
        <stop busStop="-1883472920" duration="30"/>
        <stop busStop="-3890748374" duration="30"/>
        <stop busStop="3890748385" duration="30"/>
        <stop busStop="3890748380" duration="30"/>
        <stop busStop="3890748371" duration="30"/>
        <stop busStop="1883458398" duration="30"/>
        <stop busStop="3890748363" duration="30"/>
        <stop busStop="1844135106" duration="30"/>
        <stop busStop="1844135182" duration="30"/>
        <stop busStop="1906474291" duration="30"/>
    </trip>
    <trip id="2_tram_60:1" type="pt_tram" depart="52" departLane="best" from="144077983" to="171257586">
        <stop busStop="349047807" duration="30"/>
        <stop busStop="349047810" duration="30"/>
        <stop busStop="349047813" duration="30"/>
        <stop busStop="349058473" duration="30"/>
        <stop busStop="3890748391" duration="30"/>
        <stop busStop="3890748370" duration="30"/>
        <stop busStop="3890748378" duration="30"/>
        <stop busStop="3890748382" duration="30"/>
        <stop busStop="1883465386" duration="30"/>
        <stop busStop="1883484180" duration="30"/>
        <stop busStop="1883472919" duration="30"/>
    </trip>
    <trip id="3_tram_61:0" type="pt_tram" depart="131" departLane="best" from="144077983" to="143742579">
        <stop busStop="349047807" duration="30"/>
        <stop busStop="349050439" duration="30"/>
        <stop busStop="271779546" duration="30"/>
        <stop busStop="3890748385" duration="30"/>
        <stop busStop="3890748380" duration="30"/>
        <stop busStop="3890748371" duration="30"/>
        <stop busStop="1883458398" duration="30"/>
        <stop busStop="349055083" duration="30"/>
        <stop busStop="598350419" duration="30"/>
        <stop busStop="254100382" duration="30"/>
        <stop busStop="253943504" duration="30"/>
        <stop busStop="253943512" duration="30"/>
        <stop busStop="253943514" duration="30"/>
    </trip>
    <trip id="4_tram_61:1" type="pt_tram" depart="133" departLane="best" from="171257542" to="173640266">
        <stop busStop="1823189305" duration="30"/>
        <stop busStop="1823188151" duration="30"/>
        <stop busStop="1823188120" duration="30"/>
        <stop busStop="1823188105" duration="30"/>
        <stop busStop="1823189338" duration="30"/>
        <stop busStop="1823188126" duration="30"/>
        <stop busStop="3890748391" duration="30"/>
        <stop busStop="3890748370" duration="30"/>
        <stop busStop="3890748378" duration="30"/>
        <stop busStop="3890748382" duration="30"/>
        <stop busStop="1883502289" duration="30"/>
        <stop busStop="1844135181" duration="30"/>
        <stop busStop="1906474291" duration="30"/>
    </trip>
    <trip id="5_train_S3:0" type="pt_train" depart="165" departLane="best" from="25375158" to="174528747">
        <stop busStop="1106283745" duration="30"/>
        <stop busStop="1851988093" duration="30"/>
    </trip>
    <trip id="6_train_S3:1" type="pt_train" depart="253" departLane="best" from="174528751" to="29180567">
        <stop busStop="319242587" duration="30"/>
        <stop busStop="1106283762" duration="30"/>
    </trip>
    <trip id="9_train_S3:2" type="pt_train" depart="441" departLane="best" from="174528751" to="29180567">
        <stop busStop="319242587" duration="30"/>
        <stop busStop="1106283762" duration="30"/>
    </trip>
    <trip id="10_train_S3:3" type="pt_train" depart="535" departLane="best" from="25375158" to="174528747">
        <stop busStop="1106283745" duration="30"/>
        <stop busStop="1851988093" duration="30"/>
    </trip>
</routes>
