<?xml version="1.0" encoding="UTF-8"?>

<!-- generated on 09/20/19 09:56:17 by Eclipse SUMO netedit Version v1_3_1+0387-af6f2b6888
<configuration xmlns:xsi="http://www.w3.org/2001/XMLSchema-instance" xsi:noNamespaceSchemaLocation="http://sumo.dlr.de/xsd/netconvertConfiguration.xsd">

    <output>
        <output-file value="D:\Praktikum\Bus.net.xml"/>
    </output>

    <processing>
        <offset.disable-normalization value="true"/>
    </processing>

    <junctions>
        <no-turnarounds value="true"/>
    </junctions>

</configuration>
-->

<net version="1.3" junctionCornerDetail="5" limitTurnSpeed="5.50" xmlns:xsi="http://www.w3.org/2001/XMLSchema-instance" xsi:noNamespaceSchemaLocation="http://sumo.dlr.de/xsd/net_file.xsd">

    <location netOffset="0.00,0.00" convBoundary="-40.37,-64.68,109.98,73.30" origBoundary="10000000000.00,10000000000.00,-10000000000.00,-10000000000.00" projParameter="!"/>

    <edge id=":gneJ0_0" function="internal">
        <lane id=":gneJ0_0_0" index="0" allow="bus" speed="6.18" length="5.94" shape="42.27,76.43 41.10,77.48 39.82,78.05 38.42,78.15 36.90,77.78"/>
    </edge>
    <edge id=":gneJ0_1" function="internal">
        <lane id=":gneJ0_1_0" index="0" speed="3.96" length="1.98" shape="39.84,74.34 39.45,74.69 39.02,74.89 38.56,74.92 38.05,74.79"/>
    </edge>
    <edge id=":gneJ1_0" function="internal">
        <lane id=":gneJ1_0_0" index="0" allow="bus bicycle" speed="8.22" length="10.07" shape="-34.37,50.33 -36.70,49.09 -38.41,47.40 -39.51,45.27 -39.99,42.68"/>
    </edge>
    <edge id=":gneJ1_1" function="internal">
        <lane id=":gneJ1_1_0" index="0" speed="6.68" length="6.41" shape="-33.22,47.34 -34.70,46.55 -35.79,45.48 -36.49,44.12 -36.80,42.47"/>
    </edge>
    <edge id=":gneJ2_0" function="internal">
        <lane id=":gneJ2_0_0" index="0" allow="bus" speed="8.07" length="12.10" shape="-44.96,-34.74 -44.73,-37.96 -43.59,-40.54 -41.54,-42.48 -38.58,-43.77"/>
    </edge>
    <edge id=":gneJ2_1" function="internal">
        <lane id=":gneJ2_1_0" index="0" speed="6.56" length="7.70" shape="-41.76,-34.95 -41.62,-37.00 -40.89,-38.64 -39.59,-39.87 -37.70,-40.69"/>
    </edge>
    <edge id=":gneJ3_0" function="internal">
        <lane id=":gneJ3_0_0" index="0" allow="bus" speed="6.31" length="5.01" shape="51.44,-69.30 52.72,-69.51 53.92,-69.39 55.04,-68.94 56.07,-68.15"/>
    </edge>
    <edge id=":gneJ3_1" function="internal">
        <lane id=":gneJ3_1_0" index="0" speed="4.02" length="1.67" shape="52.32,-66.22 52.74,-66.29 53.14,-66.25 53.52,-66.10 53.86,-65.84"/>
    </edge>
    <edge id=":gneJ4_0" function="internal">
        <lane id=":gneJ4_0_0" index="0" allow="bus" speed="6.08" length="7.44" shape="113.30,-13.29 114.55,-11.70 115.02,-10.07 114.71,-8.40 113.62,-6.70"/>
    </edge>
    <edge id=":gneJ4_1" function="internal">
        <lane id=":gneJ4_1_0" index="0" speed="3.91" length="2.48" shape="111.09,-10.98 111.51,-10.45 111.66,-9.91 111.56,-9.35 111.20,-8.78"/>
    </edge>

    <edge id="gneE0" from="gneJ0" to="gneJ1" priority="-1">
        <lane id="gneE0_0" index="0" allow="bus" speed="13.89" length="76.38" shape="36.90,77.78 -34.37,50.33"/>
        <lane id="gneE0_1" index="1" speed="13.89" length="76.38" shape="38.05,74.79 -33.22,47.34"/>
    </edge>
    <edge id="gneE1" from="gneJ1" to="gneJ2" priority="-1">
        <lane id="gneE1_0" index="0" allow="bicycle" speed="13.89" length="77.58" width="2.00" shape="-42.59,42.85 -47.55,-34.57"/>
        <lane id="gneE1_1" index="1" allow="bus bicycle" speed="13.89" length="77.58" shape="-39.99,42.68 -44.96,-34.74"/>
        <lane id="gneE1_2" index="2" speed="13.89" length="77.58" shape="-36.80,42.47 -41.76,-34.95"/>
    </edge>
    <edge id="gneE2" from="gneJ2" to="gneJ3" priority="-1">
        <lane id="gneE2_0" index="0" allow="bus" speed="13.89" length="93.57" shape="-38.58,-43.77 51.44,-69.30"/>
        <lane id="gneE2_1" index="1" speed="13.89" length="93.57" shape="-37.70,-40.69 52.32,-66.22"/>
    </edge>
    <edge id="gneE3" from="gneJ3" to="gneJ4" priority="-1">
        <lane id="gneE3_0" index="0" allow="bus" speed="13.89" length="79.28" shape="56.07,-68.15 113.30,-13.29"/>
        <lane id="gneE3_1" index="1" speed="13.89" length="79.28" shape="53.86,-65.84 111.09,-10.98"/>
    </edge>
    <edge id="gneE4" from="gneJ4" to="gneJ0" priority="-1">
        <lane id="gneE4_0" index="0" allow="bus" speed="13.89" length="109.55" shape="113.62,-6.70 42.27,76.43"/>
        <lane id="gneE4_1" index="1" speed="13.89" length="109.55" shape="111.20,-8.78 39.84,74.34"/>
    </edge>

    <junction id="gneJ0" type="priority" x="38.63" y="73.30" incLanes="gneE4_0 gneE4_1" intLanes=":gneJ0_0_0 :gneJ0_1_0" shape="43.48,77.47 38.63,73.30 36.33,79.27 38.99,79.80 40.22,79.63 41.38,79.19 42.47,78.47">
        <request index="0" response="00" foes="00" cont="0"/>
        <request index="1" response="00" foes="00" cont="0"/>
    </junction>
    <junction id="gneJ1" type="priority" x="-35.04" y="44.93" incLanes="gneE0_0 gneE0_1" intLanes=":gneJ1_0_0 :gneJ1_1_0" shape="-34.95,51.82 -32.65,45.85 -33.99,45.05 -34.48,44.52 -34.84,43.89 -35.08,43.18 -35.20,42.37 -43.58,42.91 -42.46,46.44 -41.24,48.00 -39.58,49.42 -37.48,50.69">
        <request index="0" response="00" foes="00" cont="0"/>
        <request index="1" response="00" foes="00" cont="0"/>
    </junction>
    <junction id="gneJ2" type="priority" x="-40.37" y="-38.27" incLanes="gneE1_0 gneE1_1 gneE1_2" intLanes=":gneJ2_0_0 :gneJ2_1_0" shape="-48.55,-34.51 -40.17,-35.05 -39.94,-36.94 -39.54,-37.69 -38.97,-38.30 -38.21,-38.79 -37.27,-39.15 -39.01,-45.31 -42.07,-44.22 -44.54,-42.84 -46.42,-41.18 -47.72,-39.24 -48.43,-37.02">
        <request index="0" response="00" foes="00" cont="0"/>
        <request index="1" response="00" foes="00" cont="0"/>
    </junction>
    <junction id="gneJ3" type="priority" x="52.75" y="-64.68" incLanes="gneE2_0 gneE2_1" intLanes=":gneJ3_0_0 :gneJ3_1_0" shape="52.75,-64.68 57.18,-69.30 55.32,-70.60 54.31,-70.96 53.26,-71.12 52.16,-71.08 51.01,-70.84">
        <request index="0" response="00" foes="00" cont="0"/>
        <request index="1" response="00" foes="00" cont="0"/>
    </junction>
    <junction id="gneJ4" type="priority" x="109.98" y="-9.82" incLanes="gneE3_0 gneE3_1" intLanes=":gneJ4_0_0 :gneJ4_1_0" shape="114.41,-14.44 109.98,-9.82 114.84,-5.66 116.55,-8.68 116.71,-10.15 116.40,-11.61 115.64,-13.04">
        <request index="0" response="00" foes="00" cont="0"/>
        <request index="1" response="00" foes="00" cont="0"/>
    </junction>

    <connection from="gneE0" to="gneE1" fromLane="0" toLane="1" via=":gneJ1_0_0" dir="l" state="M"/>
    <connection from="gneE0" to="gneE1" fromLane="1" toLane="2" via=":gneJ1_1_0" dir="l" state="M"/>
    <connection from="gneE1" to="gneE2" fromLane="1" toLane="0" via=":gneJ2_0_0" dir="l" state="M"/>
    <connection from="gneE1" to="gneE2" fromLane="2" toLane="1" via=":gneJ2_1_0" dir="l" state="M"/>
    <connection from="gneE2" to="gneE3" fromLane="0" toLane="0" via=":gneJ3_0_0" dir="l" state="M"/>
    <connection from="gneE2" to="gneE3" fromLane="1" toLane="1" via=":gneJ3_1_0" dir="l" state="M"/>
    <connection from="gneE3" to="gneE4" fromLane="0" toLane="0" via=":gneJ4_0_0" dir="l" state="M"/>
    <connection from="gneE3" to="gneE4" fromLane="1" toLane="1" via=":gneJ4_1_0" dir="l" state="M"/>
    <connection from="gneE4" to="gneE0" fromLane="0" toLane="0" via=":gneJ0_0_0" dir="l" state="M"/>
    <connection from="gneE4" to="gneE0" fromLane="1" toLane="1" via=":gneJ0_1_0" dir="l" state="M"/>

    <connection from=":gneJ0_0" to="gneE0" fromLane="0" toLane="0" dir="l" state="M"/>
    <connection from=":gneJ0_1" to="gneE0" fromLane="0" toLane="1" dir="l" state="M"/>
    <connection from=":gneJ1_0" to="gneE1" fromLane="0" toLane="1" dir="l" state="M"/>
    <connection from=":gneJ1_1" to="gneE1" fromLane="0" toLane="2" dir="l" state="M"/>
    <connection from=":gneJ2_0" to="gneE2" fromLane="0" toLane="0" dir="l" state="M"/>
    <connection from=":gneJ2_1" to="gneE2" fromLane="0" toLane="1" dir="l" state="M"/>
    <connection from=":gneJ3_0" to="gneE3" fromLane="0" toLane="0" dir="l" state="M"/>
    <connection from=":gneJ3_1" to="gneE3" fromLane="0" toLane="1" dir="l" state="M"/>
    <connection from=":gneJ4_0" to="gneE4" fromLane="0" toLane="0" dir="l" state="M"/>
    <connection from=":gneJ4_1" to="gneE4" fromLane="0" toLane="1" dir="l" state="M"/>

</net>
