<?xml version="1.0" encoding="UTF-8"?>

<!-- generated on 09/19/19 12:18:17 by Eclipse SUMO netedit Version v1_3_1+0387-af6f2b6888
<configuration xmlns:xsi="http://www.w3.org/2001/XMLSchema-instance" xsi:noNamespaceSchemaLocation="http://sumo.dlr.de/xsd/netconvertConfiguration.xsd">

    <output>
        <output-file value="C:\Users\camil\Sumo\netedit_testing\walkcrash.net.xml"/>
    </output>

    <processing>
        <offset.disable-normalization value="true"/>
    </processing>

    <junctions>
        <no-turnarounds value="true"/>
    </junctions>

    <netedit>
        <route-files value="C:\Users\camil\Sumo\netedit_testing\walkcrash.rou.xml"/>
    </netedit>

</configuration>
-->

<routes xmlns:xsi="http://www.w3.org/2001/XMLSchema-instance" xsi:noNamespaceSchemaLocation="http://sumo.dlr.de/xsd/routes_file.xsd">
    <vType id="pType_0" vClass="pedestrian"/>
    <person id="person_0" depart="0.00">
        <walk edges="gneE0 gneE1"/>
    </person>
</routes>
