<?xml version="1.0" encoding="UTF-8"?>

<!-- generated on 09/19/19 12:17:17 by Eclipse SUMO netedit Version v1_3_1+0387-af6f2b6888
<configuration xmlns:xsi="http://www.w3.org/2001/XMLSchema-instance" xsi:noNamespaceSchemaLocation="http://sumo.dlr.de/xsd/netconvertConfiguration.xsd">

    <output>
        <output-file value="C:\Users\camil\Sumo\netedit_testing\walkcrash.net.xml"/>
    </output>

    <processing>
        <offset.disable-normalization value="true"/>
    </processing>

    <junctions>
        <no-turnarounds value="true"/>
    </junctions>

</configuration>
-->

<net version="1.3" junctionCornerDetail="5" limitTurnSpeed="5.50" xmlns:xsi="http://www.w3.org/2001/XMLSchema-instance" xsi:noNamespaceSchemaLocation="http://sumo.dlr.de/xsd/net_file.xsd">

    <location netOffset="0.00,0.00" convBoundary="12.16,64.61,102.84,65.24" origBoundary="10000000000.00,10000000000.00,-10000000000.00,-10000000000.00" projParameter="!"/>

    <edge id=":gneJ1_0" function="internal">
        <lane id=":gneJ1_0_0" index="0" speed="13.89" length="0.29" shape="70.93,63.01 71.23,63.01"/>
    </edge>

    <edge id="gneE0" from="gneJ0" to="gneJ1" priority="-1">
        <lane id="gneE0_0" index="0" speed="13.89" length="58.79" shape="12.15,63.64 70.93,63.01"/>
    </edge>
    <edge id="gneE1" from="gneJ1" to="gneJ2" priority="-1">
        <lane id="gneE1_0" index="0" speed="13.89" length="31.62" shape="71.23,63.01 102.84,63.01"/>
    </edge>

    <junction id="gneJ0" type="dead_end" x="12.16" y="65.24" incLanes="" intLanes="" shape="12.16,65.24 12.13,62.05"/>
    <junction id="gneJ1" type="priority" x="71.09" y="64.61" incLanes="gneE0_0" intLanes=":gneJ1_0_0" shape="71.23,64.61 71.23,61.41 70.92,61.41 70.95,64.61">
        <request index="0" response="0" foes="0" cont="0"/>
    </junction>
    <junction id="gneJ2" type="dead_end" x="102.84" y="64.61" incLanes="gneE1_0" intLanes="" shape="102.84,61.41 102.84,64.61"/>

    <connection from="gneE0" to="gneE1" fromLane="0" toLane="0" via=":gneJ1_0_0" dir="s" state="M"/>

    <connection from=":gneJ1_0" to="gneE1" fromLane="0" toLane="0" dir="s" state="M"/>

</net>
